                                   MODFLOW 6
                U.S. GEOLOGICAL SURVEY MODULAR HYDROLOGIC MODEL
                          GROUNDWATER FLOW MODEL (GWF)
                            VERSION 6.3.0 03/04/2022

   MODFLOW 6 compiled Mar 02 2022 15:29:04 with Intel(R) Fortran Intel(R) 64
   Compiler Classic for applications running on Intel(R) 64, Version 2021.5.0
                             Build 20211109_000000

This software has been approved for release by the U.S. Geological 
Survey (USGS). Although the software has been subjected to rigorous 
review, the USGS reserves the right to update the software as needed 
pursuant to further analysis and review. No warranty, expressed or 
implied, is made by the USGS or the U.S. Government as to the 
functionality of the software and related material nor shall the 
fact of release constitute any such warranty. Furthermore, the 
software is released on condition that neither the USGS nor the U.S. 
Government shall be held liable for any damages resulting from its 
authorized or unauthorized use. Also refer to the USGS Water 
Resources Software User Rights Notice for complete use, copyright, 
and distribution information.


As a work of the United States Government, this USGS product is 
in the public domain within the United States. You can copy, 
modify, distribute, and perform the work, even for commercial 
purposes, all without asking permission. Additionally, USGS 
waives copyright and related rights in the work worldwide 
through CC0 1.0 Universal Public Domain Dedication 
(https://creativecommons.org/publicdomain/zero/1.0/).

The following GNU Lesser General Public License (LGPL) libraries
are used in this USGS product:

    SPARSKIT version 2.0
      ilut, luson, and qsplit 
      (https://www-users.cse.umn.edu/~saad/software/SPARSKIT/)

    RCM - Reverse Cuthill McKee Ordering
      (https://people.math.sc.edu/Burkardt/f_src/rcm/rcm.html)

    BLAS - Basic Linear Algebra Subprograms Level 1
      (https://people.math.sc.edu/Burkardt/f_src/blas1_d/blas1_d.html)

    SPARSEKIT - Sparse Matrix Utility Package
      amux, dperm, dvperm, rperm, and cperm
      (https://people.sc.fsu.edu/~jburkardt/f77_src/sparsekit/sparsekit.html)

The following BSD-3 License libraries are used in this USGS product:

    Modern Fortran DAG Library
      Copyright (c) 2018, Jacob Williams
      All rights reserved.
      (https://github.com/jacobwilliams/daglib)

MODFLOW 6 compiler options: /Isrc\libmf6core.a.p /Isrc /I..\src
/Isrc\libmf6_external.a.p /MTd /nologo /warn:general /warn:truncated_source
/stand:f08 /Zi /traceback /O2 /Zi /fpe:0 /fpp /Qdiag-disable:7416
/Qdiag-disable:7025 /Qdiag-disable:5268
/Fdsrc\libmf6core.a.p\Utilities_compilerversion.F90.pdb
/module:src\libmf6core.a.p
/Fosrc/libmf6core.a.p/Utilities_compilerversion.F90.obj /c

System command used to initiate simulation:
c:\src\MODFLOW6\mf6.3.0\bin\mf6

MODFLOW was compiled using uniform precision.

Real Variables
  KIND: 8
  TINY (smallest non-zero value):    2.225074-308
  HUGE (largest value):    1.797693+308
  PRECISION: 15
  BIT SIZE: 64

Integer Variables
  KIND: 4
  HUGE (largest value): 2147483647
  BIT SIZE: 32

Long Integer Variables
  KIND: 8
  HUGE (largest value): 9223372036854775807
  BIT SIZE: 64

Logical Variables
  KIND: 4
  BIT SIZE: 32
 

 OPENED .\GWF_1\MODELINPUT\T-MODEL-D.DIS6
 FILE TYPE:DIS6                   UNIT 1005   STATUS:OLD                 
 FORMAT:FORMATTED              ACCESS:SEQUENTIAL          
 ACTION:READ                


 OPENED .\GWF_1\MODELINPUT\T-MODEL-D.IC6
 FILE TYPE:IC6                    UNIT 1006   STATUS:OLD                 
 FORMAT:FORMATTED              ACCESS:SEQUENTIAL          
 ACTION:READ                


 OPENED .\GWF_1\MODELINPUT\T-MODEL-D.NPF6
 FILE TYPE:NPF6                   UNIT 1007   STATUS:OLD                 
 FORMAT:FORMATTED              ACCESS:SEQUENTIAL          
 ACTION:READ                


 OPENED .\GWF_1\MODELINPUT\T-MODEL-D.OC6
 FILE TYPE:OC6                    UNIT 1008   STATUS:OLD                 
 FORMAT:FORMATTED              ACCESS:SEQUENTIAL          
 ACTION:READ                


 OPENED .\GWF_1\MODELINPUT\T-MODEL-D.STO6
 FILE TYPE:STO6                   UNIT 1009   STATUS:OLD                 
 FORMAT:FORMATTED              ACCESS:SEQUENTIAL          
 ACTION:READ                


 OPENED .\GWF_1\MODELINPUT\T-MODEL-D_SYS1.DRN6
 FILE TYPE:DRN6                   UNIT 1010   STATUS:OLD                 
 FORMAT:FORMATTED              ACCESS:SEQUENTIAL          
 ACTION:READ                


 OPENED .\GWF_1\MODELINPUT\T-MODEL-D_SYS1.RIV6
 FILE TYPE:RIV6                   UNIT 1011   STATUS:OLD                 
 FORMAT:FORMATTED              ACCESS:SEQUENTIAL          
 ACTION:READ                


 OPENED .\GWF_1\MODELINPUT\T-MODEL-D_SYS2.RIV6
 FILE TYPE:RIV6                   UNIT 1012   STATUS:OLD                 
 FORMAT:FORMATTED              ACCESS:SEQUENTIAL          
 ACTION:READ                


 OPENED .\GWF_1\MODELINPUT\MSW.RCH6
 FILE TYPE:RCH6                   UNIT 1013   STATUS:OLD                 
 FORMAT:FORMATTED              ACCESS:SEQUENTIAL          
 ACTION:READ                


 DIS -- STRUCTURED GRID DISCRETIZATION PACKAGE, VERSION 2 : 3/27/2014 - INPUT READ FROM UNIT 1005


 # DIS6 File Generated by iMOD [V5_4 X64 Optimized]
 PROCESSING DISCRETIZATION OPTIONS
    MODEL LENGTH UNIT IS METERS
    XORIGIN SPECIFIED AS     0.00000000000000    
    YORIGIN SPECIFIED AS     0.00000000000000    
    ANGROT SPECIFIED AS     0.00000000000000    
 END OF DISCRETIZATION OPTIONS
 #Model Dimensions
 PROCESSING DISCRETIZATION DIMENSIONS
    NLAY =       1
    NROW =      11
    NCOL =      10
 END OF DISCRETIZATION DIMENSIONS
 #Cell Sizes
 PROCESSING GRIDDATA

                     DELR =   100.0000    

                     DELC =   100.0000    
 #Vertical Configuration

 TOP ELEVATION OF LAYER 1 =   0.000000    

   MODEL LAYER BOTTOM EL. =  -10.00000     FOR LAYER 1
 #Boundary Settings

 OPENED .\GWF_1\MODELINPUT\DIS6\IBOUND_L1.ARR
 FILE TYPE:OPEN/CLOSE   UNIT 1015   STATUS:OLD                 
 FORMAT:FORMATTED              ACCESS:SEQUENTIAL          
 ACTION:READ                

 END PROCESSING GRIDDATA

 NPF -- NODE PROPERTY FLOW PACKAGE, VERSION 1, 3/30/2015 INPUT READ FROM UNIT 1007


 # NPF6 File Generated by iMOD [V5_4 X64 Optimized]
 #General Options
 PROCESSING NPF OPTIONS
    ALTERNATIVE CELL AVERAGING HAS BEEN SET TO AMT-HMK
    CELL AVERAGING METHOD HAS BEEN SET TO: AMT-HMK                                                                                                                                                                                                                                                                                                     
 END OF NPF OPTIONS

 DRN   -- DRN PACKAGE, VERSION 8, 2/22/2014 INPUT READ FROM UNIT 1010
 # DRN6 File Generated by iMOD [V5_4 X64 Optimized]
 #General Options

 PROCESSING DRN OPTIONS
    FLOWS WILL BE SAVED TO BUDGET FILE SPECIFIED IN OUTPUT CONTROL
 END OF DRN OPTIONS
 #General Dimensions

 PROCESSING DRN DIMENSIONS
    MAXBOUND =       2
 END OF DRN DIMENSIONS

 RIV   -- RIV PACKAGE, VERSION 8, 2/22/2014 INPUT READ FROM UNIT 1011
 # RIV6 File Generated by iMOD [V5_4 X64 Optimized]
 #General Options

 PROCESSING RIV OPTIONS
    FLOWS WILL BE SAVED TO BUDGET FILE SPECIFIED IN OUTPUT CONTROL
 END OF RIV OPTIONS
 #General Dimensions

 PROCESSING RIV DIMENSIONS
    MAXBOUND =      55
 END OF RIV DIMENSIONS

 RIV   -- RIV PACKAGE, VERSION 8, 2/22/2014 INPUT READ FROM UNIT 1012
 # RIV6 File Generated by iMOD [V5_4 X64 Optimized]
 #General Options

 PROCESSING RIV OPTIONS
    FLOWS WILL BE SAVED TO BUDGET FILE SPECIFIED IN OUTPUT CONTROL
 END OF RIV OPTIONS
 #General Dimensions

 PROCESSING RIV DIMENSIONS
    MAXBOUND =       3
 END OF RIV DIMENSIONS

 RCH   -- RCH PACKAGE, VERSION 8, 2/22/2014 INPUT READ FROM UNIT 1013
 # RCH6 File Generated by iMOD [V5_4 X64 Optimized]
 #General Options

 PROCESSING RCH OPTIONS
 END OF RCH OPTIONS
 #General Dimensions

 PROCESSING RCH DIMENSIONS
    MAXBOUND =     110
 END OF RCH DIMENSIONS

 IC -- INITIAL CONDITIONS PACKAGE, VERSION 8, 3/28/2015 INPUT READ FROM UNIT 1006
 # IC6 File Generated by iMOD [V5_4 X64 Optimized]
 #General Options
 PROCESSING IC OPTIONS
 END OF IC OPTIONS
 #Initial Head Data
 PROCESSING GRIDDATA

     INITIAL HEAD =   10.00000     FOR LAYER 1
 END PROCESSING GRIDDATA
 #Geology Options
 PROCESSING GRIDDATA

                ICELLTYPE = 0 FOR LAYER 1

                        K =   100.0000     FOR LAYER 1

                      K33 =   1.000000     FOR LAYER 1
 K22 not provided.  Assuming K22 = K.
 END PROCESSING GRIDDATA

 STO -- STORAGE PACKAGE, VERSION 1, 5/19/2014 INPUT READ FROM UNIT 1009


 # STO6 File Generated by iMOD [V5_4 X64 Optimized]
 #General Options
 PROCESSING STORAGE OPTIONS
    STORAGECOEFFICIENT OPTION:
 Read storage coefficient rather than specific storage
 END OF STORAGE OPTIONS
 #Geology Options
 PROCESSING GRIDDATA

                 ICONVERT = 0 FOR LAYER 1

         SPECIFIC STORAGE =  0.1500000     FOR LAYER 1
 END PROCESSING GRIDDATA
    BINARY GRID INFORMATION WILL BE WRITTEN TO:
      UNIT NUMBER: 1016
      FILE NAME: C:\src\lumbricus\lumbricustests\t-model\MF6\testD\GWF_1\MODELINPUT\T-MODEL-D.DIS6.grb

 OPENED C:\src\lumbricus\lumbricustests\t-model\MF6\testD\GWF_1\MODELINPUT\T-MODEL-D.DIS6.grb
 FILE TYPE:DATA(BINARY)   UNIT 1016   STATUS:REPLACE             
 FORMAT:UNFORMATTED            ACCESS:STREAM              
 ACTION:READWRITE           

      THE LAST TIME STEP WILL BE PRINTED
      THE LAST TIME STEP WILL BE PRINTED
 # OC6 File Generated by iMOD [V5_4 X64 Optimized]
 #General Options

 PROCESSING OC OPTIONS

    HEAD INFORMATION WILL BE WRITTEN TO:
      UNIT NUMBER: 1017
      FILE NAME: .\GWF_1\MODELOUTPUT\HEAD\HEAD.HED

 OPENED .\GWF_1\MODELOUTPUT\HEAD\HEAD.HED
 FILE TYPE:DATA(BINARY)   UNIT 1017   STATUS:REPLACE             
 FORMAT:UNFORMATTED            ACCESS:STREAM              
 ACTION:READWRITE           

    BUDGET INFORMATION WILL BE WRITTEN TO:
      UNIT NUMBER: 1018
      FILE NAME: .\GWF_1\MODELOUTPUT\BUDGET\BUDGET.CBC

 OPENED .\GWF_1\MODELOUTPUT\BUDGET\BUDGET.CBC
 FILE TYPE:DATA(BINARY)   UNIT 1018   STATUS:REPLACE             
 FORMAT:UNFORMATTED            ACCESS:STREAM              
 ACTION:READWRITE           

 END OF OC OPTIONS

start timestep kper="1" kstp="1" mode="normal"

 #Stressperiod Save Options

 BEGIN READING OUTPUT CONTROL FOR STRESS PERIOD 1
      ALL TIME STEPS WILL BE SAVED
      ALL TIME STEPS WILL BE SAVED

 END READING OUTPUT CONTROL FOR STRESS PERIOD 1
 #Time Storage Options


 PROCESSING STORAGE PERIOD DATA
 END PROCESSING STORAGE PERIOD DATA


 STRESS PERIOD 1 IS TRANSIENT


 OPENED .\GWF_1\MODELINPUT\DRN6\SYS1\DRN_T1.ARR
 FILE TYPE:OPEN/CLOSE   UNIT 1021   STATUS:OLD                 
 FORMAT:FORMATTED              ACCESS:SEQUENTIAL          
 ACTION:READ                


 OPENED .\GWF_1\MODELINPUT\ISG6\SYS1\ISG_T1.ARR
 FILE TYPE:OPEN/CLOSE   UNIT 1022   STATUS:OLD                 
 FORMAT:FORMATTED              ACCESS:SEQUENTIAL          
 ACTION:READ                


 OPENED .\GWF_1\MODELINPUT\RIV6\SYS1\RIV_T1.ARR
 FILE TYPE:OPEN/CLOSE   UNIT 1023   STATUS:OLD                 
 FORMAT:FORMATTED              ACCESS:SEQUENTIAL          
 ACTION:READ                

 UBDSV06 SAVING              DRN IN MODEL GWF_1            PACKAGE GWF_1           CONNECTED TO MODEL GWF_1            PACKAGE DRN_SYS1         ON UNIT   1018 AT TIME STEP      1, STRESS PERIOD      1
 UBDSV06 SAVING              RIV IN MODEL GWF_1            PACKAGE GWF_1           CONNECTED TO MODEL GWF_1            PACKAGE RIV_SYS1         ON UNIT   1018 AT TIME STEP      1, STRESS PERIOD      1
 UBDSV06 SAVING              RIV IN MODEL GWF_1            PACKAGE GWF_1           CONNECTED TO MODEL GWF_1            PACKAGE RIV_SYS2         ON UNIT   1018 AT TIME STEP      1, STRESS PERIOD      1

 HEAD WILL BE SAVED ON UNIT 1017 AT END OF TIME STEP    1, STRESS PERIOD    1


  VOLUME BUDGET FOR ENTIRE MODEL AT END OF TIME STEP    1, STRESS PERIOD   1
  ---------------------------------------------------------------------------------------------------

     CUMULATIVE VOLUME      L**3       RATES FOR THIS TIME STEP      L**3/T          PACKAGE NAME    
     ------------------                 ------------------------                     ----------------

           IN:                                      IN:
           ---                                      ---
              STO-SS =       24042.9701                STO-SS =       24042.9701     STORAGE                          
                 DRN =           0.0000                   DRN =           0.0000     DRN_SYS1                         
                 RIV =           0.0000                   RIV =           0.0000     RIV_SYS1                         
                 RIV =           0.0000                   RIV =           0.0000     RIV_SYS2                         
                 RCH =           0.0000                   RCH =           0.0000     RCH_MSW                          

            TOTAL IN =       24042.9701              TOTAL IN =       24042.9701

          OUT:                                     OUT:
          ----                                     ----
              STO-SS =           0.0000                STO-SS =           0.0000     STORAGE                          
                 DRN =         288.3390                   DRN =         288.3390     DRN_SYS1                         
                 RIV =       22915.5846                   RIV =       22915.5846     RIV_SYS1                         
                 RIV =         839.0468                   RIV =         839.0468     RIV_SYS2                         
                 RCH =           0.0000                   RCH =           0.0000     RCH_MSW                          

           TOTAL OUT =       24042.9704             TOTAL OUT =       24042.9704

            IN - OUT =      -2.9475E-04              IN - OUT =      -2.9475E-04

 PERCENT DISCREPANCY =          -0.00     PERCENT DISCREPANCY =          -0.00




         TIME SUMMARY AT END OF TIME STEP    1 IN STRESS PERIOD    1
                    SECONDS     MINUTES      HOURS       DAYS        YEARS
                    -----------------------------------------------------------
   TIME STEP LENGTH  86400.      1440.0      24.000      1.0000     2.73785E-03
 STRESS PERIOD TIME  86400.      1440.0      24.000      1.0000     2.73785E-03
         TOTAL TIME  86400.      1440.0      24.000      1.0000     2.73785E-03


end timestep


start timestep kper="2" kstp="1" mode="normal"

 #Stressperiod Save Options

 BEGIN READING OUTPUT CONTROL FOR STRESS PERIOD 2
      ALL TIME STEPS WILL BE SAVED
      ALL TIME STEPS WILL BE SAVED

 END READING OUTPUT CONTROL FOR STRESS PERIOD 2


 PROCESSING STORAGE PERIOD DATA
 END PROCESSING STORAGE PERIOD DATA


 STRESS PERIOD 2 IS TRANSIENT


 REUSING DRNS FROM LAST STRESS PERIOD

 REUSING RIVS FROM LAST STRESS PERIOD

 REUSING RIVS FROM LAST STRESS PERIOD

 REUSING RCHS FROM LAST STRESS PERIOD
 UBDSV06 SAVING              DRN IN MODEL GWF_1            PACKAGE GWF_1           CONNECTED TO MODEL GWF_1            PACKAGE DRN_SYS1         ON UNIT   1018 AT TIME STEP      1, STRESS PERIOD      2
 UBDSV06 SAVING              RIV IN MODEL GWF_1            PACKAGE GWF_1           CONNECTED TO MODEL GWF_1            PACKAGE RIV_SYS1         ON UNIT   1018 AT TIME STEP      1, STRESS PERIOD      2
 UBDSV06 SAVING              RIV IN MODEL GWF_1            PACKAGE GWF_1           CONNECTED TO MODEL GWF_1            PACKAGE RIV_SYS2         ON UNIT   1018 AT TIME STEP      1, STRESS PERIOD      2

 HEAD WILL BE SAVED ON UNIT 1017 AT END OF TIME STEP    1, STRESS PERIOD    2


  VOLUME BUDGET FOR ENTIRE MODEL AT END OF TIME STEP    1, STRESS PERIOD   2
  ---------------------------------------------------------------------------------------------------

     CUMULATIVE VOLUME      L**3       RATES FOR THIS TIME STEP      L**3/T          PACKAGE NAME    
     ------------------                 ------------------------                     ----------------

           IN:                                      IN:
           ---                                      ---
              STO-SS =       41335.7413                STO-SS =       17292.7712     STORAGE                          
                 DRN =           0.0000                   DRN =           0.0000     DRN_SYS1                         
                 RIV =           0.0000                   RIV =           0.0000     RIV_SYS1                         
                 RIV =           0.0000                   RIV =           0.0000     RIV_SYS2                         
                 RCH =           0.0000                   RCH =           0.0000     RCH_MSW                          

            TOTAL IN =       41335.7413              TOTAL IN =       17292.7712

          OUT:                                     OUT:
          ----                                     ----
              STO-SS =           0.0000                STO-SS =           0.0000     STORAGE                          
                 DRN =         565.3415                   DRN =         277.0025     DRN_SYS1                         
                 RIV =       39139.8772                   RIV =       16224.2926     RIV_SYS1                         
                 RIV =        1630.5272                   RIV =         791.4804     RIV_SYS2                         
                 RCH =           0.0000                   RCH =           0.0000     RCH_MSW                          

           TOTAL OUT =       41335.7458             TOTAL OUT =       17292.7755

            IN - OUT =      -4.5729E-03              IN - OUT =      -4.2782E-03

 PERCENT DISCREPANCY =          -0.00     PERCENT DISCREPANCY =          -0.00




         TIME SUMMARY AT END OF TIME STEP    1 IN STRESS PERIOD    2
                    SECONDS     MINUTES      HOURS       DAYS        YEARS
                    -----------------------------------------------------------
   TIME STEP LENGTH  86400.      1440.0      24.000      1.0000     2.73785E-03
 STRESS PERIOD TIME  86400.      1440.0      24.000      1.0000     2.73785E-03
         TOTAL TIME 1.72800E+05  2880.0      48.000      2.0000     5.47570E-03


end timestep


start timestep kper="3" kstp="1" mode="normal"

 #Stressperiod Save Options

 BEGIN READING OUTPUT CONTROL FOR STRESS PERIOD 3
      ALL TIME STEPS WILL BE SAVED
      ALL TIME STEPS WILL BE SAVED

 END READING OUTPUT CONTROL FOR STRESS PERIOD 3


 PROCESSING STORAGE PERIOD DATA
 END PROCESSING STORAGE PERIOD DATA


 STRESS PERIOD 3 IS TRANSIENT


 REUSING DRNS FROM LAST STRESS PERIOD

 REUSING RIVS FROM LAST STRESS PERIOD

 REUSING RIVS FROM LAST STRESS PERIOD

 REUSING RCHS FROM LAST STRESS PERIOD
 UBDSV06 SAVING              DRN IN MODEL GWF_1            PACKAGE GWF_1           CONNECTED TO MODEL GWF_1            PACKAGE DRN_SYS1         ON UNIT   1018 AT TIME STEP      1, STRESS PERIOD      3
 UBDSV06 SAVING              RIV IN MODEL GWF_1            PACKAGE GWF_1           CONNECTED TO MODEL GWF_1            PACKAGE RIV_SYS1         ON UNIT   1018 AT TIME STEP      1, STRESS PERIOD      3
 UBDSV06 SAVING              RIV IN MODEL GWF_1            PACKAGE GWF_1           CONNECTED TO MODEL GWF_1            PACKAGE RIV_SYS2         ON UNIT   1018 AT TIME STEP      1, STRESS PERIOD      3

 HEAD WILL BE SAVED ON UNIT 1017 AT END OF TIME STEP    1, STRESS PERIOD    3


  VOLUME BUDGET FOR ENTIRE MODEL AT END OF TIME STEP    1, STRESS PERIOD   3
  ---------------------------------------------------------------------------------------------------

     CUMULATIVE VOLUME      L**3       RATES FOR THIS TIME STEP      L**3/T          PACKAGE NAME    
     ------------------                 ------------------------                     ----------------

           IN:                                      IN:
           ---                                      ---
              STO-SS =       55228.3502                STO-SS =       13892.6089     STORAGE                          
                 DRN =           0.0000                   DRN =           0.0000     DRN_SYS1                         
                 RIV =           0.0000                   RIV =           0.0000     RIV_SYS1                         
                 RIV =           0.0000                   RIV =           0.0000     RIV_SYS2                         
                 RCH =           0.0000                   RCH =           0.0000     RCH_MSW                          

            TOTAL IN =       55228.3502              TOTAL IN =       13892.6089

          OUT:                                     OUT:
          ----                                     ----
              STO-SS =           0.0000                STO-SS =           0.0000     STORAGE                          
                 DRN =         830.2358                   DRN =         264.8943     DRN_SYS1                         
                 RIV =       52020.6881                   RIV =       12880.8109     RIV_SYS1                         
                 RIV =        2377.4329                   RIV =         746.9057     RIV_SYS2                         
                 RCH =           0.0000                   RCH =           0.0000     RCH_MSW                          

           TOTAL OUT =       55228.3568             TOTAL OUT =       13892.6110

            IN - OUT =      -6.6637E-03              IN - OUT =      -2.0908E-03

 PERCENT DISCREPANCY =          -0.00     PERCENT DISCREPANCY =          -0.00




         TIME SUMMARY AT END OF TIME STEP    1 IN STRESS PERIOD    3
                    SECONDS     MINUTES      HOURS       DAYS        YEARS
                    -----------------------------------------------------------
   TIME STEP LENGTH  86400.      1440.0      24.000      1.0000     2.73785E-03
 STRESS PERIOD TIME  86400.      1440.0      24.000      1.0000     2.73785E-03
         TOTAL TIME 2.59200E+05  4320.0      72.000      3.0000     8.21355E-03


end timestep


start timestep kper="4" kstp="1" mode="normal"

 #Stressperiod Save Options

 BEGIN READING OUTPUT CONTROL FOR STRESS PERIOD 4
      ALL TIME STEPS WILL BE SAVED
      ALL TIME STEPS WILL BE SAVED

 END READING OUTPUT CONTROL FOR STRESS PERIOD 4


 PROCESSING STORAGE PERIOD DATA
 END PROCESSING STORAGE PERIOD DATA


 STRESS PERIOD 4 IS TRANSIENT


 REUSING DRNS FROM LAST STRESS PERIOD

 REUSING RIVS FROM LAST STRESS PERIOD

 REUSING RIVS FROM LAST STRESS PERIOD

 REUSING RCHS FROM LAST STRESS PERIOD
 UBDSV06 SAVING              DRN IN MODEL GWF_1            PACKAGE GWF_1           CONNECTED TO MODEL GWF_1            PACKAGE DRN_SYS1         ON UNIT   1018 AT TIME STEP      1, STRESS PERIOD      4
 UBDSV06 SAVING              RIV IN MODEL GWF_1            PACKAGE GWF_1           CONNECTED TO MODEL GWF_1            PACKAGE RIV_SYS1         ON UNIT   1018 AT TIME STEP      1, STRESS PERIOD      4
 UBDSV06 SAVING              RIV IN MODEL GWF_1            PACKAGE GWF_1           CONNECTED TO MODEL GWF_1            PACKAGE RIV_SYS2         ON UNIT   1018 AT TIME STEP      1, STRESS PERIOD      4

 HEAD WILL BE SAVED ON UNIT 1017 AT END OF TIME STEP    1, STRESS PERIOD    4


  VOLUME BUDGET FOR ENTIRE MODEL AT END OF TIME STEP    1, STRESS PERIOD   4
  ---------------------------------------------------------------------------------------------------

     CUMULATIVE VOLUME      L**3       RATES FOR THIS TIME STEP      L**3/T          PACKAGE NAME    
     ------------------                 ------------------------                     ----------------

           IN:                                      IN:
           ---                                      ---
              STO-SS =       67066.6711                STO-SS =       11838.3209     STORAGE                          
                 DRN =           0.0000                   DRN =           0.0000     DRN_SYS1                         
                 RIV =           0.0000                   RIV =           0.0000     RIV_SYS1                         
                 RIV =           0.0000                   RIV =           0.0000     RIV_SYS2                         
                 RCH =           0.0000                   RCH =           0.0000     RCH_MSW                          

            TOTAL IN =       67066.6711              TOTAL IN =       11838.3209

          OUT:                                     OUT:
          ----                                     ----
              STO-SS =           0.0000                STO-SS =           0.0000     STORAGE                          
                 DRN =        1082.6380                   DRN =         252.4022     DRN_SYS1                         
                 RIV =       62902.6708                   RIV =       10881.9826     RIV_SYS1                         
                 RIV =        3081.3698                   RIV =         703.9369     RIV_SYS2                         
                 RCH =           0.0000                   RCH =           0.0000     RCH_MSW                          

           TOTAL OUT =       67066.6786             TOTAL OUT =       11838.3218

            IN - OUT =      -7.5129E-03              IN - OUT =      -8.4923E-04

 PERCENT DISCREPANCY =          -0.00     PERCENT DISCREPANCY =          -0.00




         TIME SUMMARY AT END OF TIME STEP    1 IN STRESS PERIOD    4
                    SECONDS     MINUTES      HOURS       DAYS        YEARS
                    -----------------------------------------------------------
   TIME STEP LENGTH  86400.      1440.0      24.000      1.0000     2.73785E-03
 STRESS PERIOD TIME  86400.      1440.0      24.000      1.0000     2.73785E-03
         TOTAL TIME 3.45600E+05  5760.0      96.000      4.0000     1.09514E-02


end timestep


start timestep kper="5" kstp="1" mode="normal"

 #Stressperiod Save Options

 BEGIN READING OUTPUT CONTROL FOR STRESS PERIOD 5
      ALL TIME STEPS WILL BE SAVED
      ALL TIME STEPS WILL BE SAVED

 END READING OUTPUT CONTROL FOR STRESS PERIOD 5


 PROCESSING STORAGE PERIOD DATA
 END PROCESSING STORAGE PERIOD DATA


 STRESS PERIOD 5 IS TRANSIENT


 REUSING DRNS FROM LAST STRESS PERIOD

 REUSING RIVS FROM LAST STRESS PERIOD

 REUSING RIVS FROM LAST STRESS PERIOD

 REUSING RCHS FROM LAST STRESS PERIOD
 UBDSV06 SAVING              DRN IN MODEL GWF_1            PACKAGE GWF_1           CONNECTED TO MODEL GWF_1            PACKAGE DRN_SYS1         ON UNIT   1018 AT TIME STEP      1, STRESS PERIOD      5
 UBDSV06 SAVING              RIV IN MODEL GWF_1            PACKAGE GWF_1           CONNECTED TO MODEL GWF_1            PACKAGE RIV_SYS1         ON UNIT   1018 AT TIME STEP      1, STRESS PERIOD      5
 UBDSV06 SAVING              RIV IN MODEL GWF_1            PACKAGE GWF_1           CONNECTED TO MODEL GWF_1            PACKAGE RIV_SYS2         ON UNIT   1018 AT TIME STEP      1, STRESS PERIOD      5

 HEAD WILL BE SAVED ON UNIT 1017 AT END OF TIME STEP    1, STRESS PERIOD    5


  VOLUME BUDGET FOR ENTIRE MODEL AT END OF TIME STEP    1, STRESS PERIOD   5
  ---------------------------------------------------------------------------------------------------

     CUMULATIVE VOLUME      L**3       RATES FOR THIS TIME STEP      L**3/T          PACKAGE NAME    
     ------------------                 ------------------------                     ----------------

           IN:                                      IN:
           ---                                      ---
              STO-SS =       77487.4540                STO-SS =       10420.7830     STORAGE                          
                 DRN =           0.0000                   DRN =           0.0000     DRN_SYS1                         
                 RIV =           0.0000                   RIV =           0.0000     RIV_SYS1                         
                 RIV =           0.0000                   RIV =           0.0000     RIV_SYS2                         
                 RCH =           0.0000                   RCH =           0.0000     RCH_MSW                          

            TOTAL IN =       77487.4540              TOTAL IN =       10420.7830

          OUT:                                     OUT:
          ----                                     ----
              STO-SS =           0.0000                STO-SS =           0.0000     STORAGE                          
                 DRN =        1322.6320                   DRN =         239.9939     DRN_SYS1                         
                 RIV =       72420.5113                   RIV =        9517.8405     RIV_SYS1                         
                 RIV =        3744.3185                   RIV =         662.9487     RIV_SYS2                         
                 RCH =           0.0000                   RCH =           0.0000     RCH_MSW                          

           TOTAL OUT =       77487.4618             TOTAL OUT =       10420.7832

            IN - OUT =      -7.7125E-03              IN - OUT =      -1.9953E-04

 PERCENT DISCREPANCY =          -0.00     PERCENT DISCREPANCY =          -0.00




         TIME SUMMARY AT END OF TIME STEP    1 IN STRESS PERIOD    5
                    SECONDS     MINUTES      HOURS       DAYS        YEARS
                    -----------------------------------------------------------
   TIME STEP LENGTH  86400.      1440.0      24.000      1.0000     2.73785E-03
 STRESS PERIOD TIME  86400.      1440.0      24.000      1.0000     2.73785E-03
         TOTAL TIME 4.32000E+05  7200.0      120.00      5.0000     1.36893E-02


end timestep


start timestep kper="6" kstp="1" mode="normal"

 #Stressperiod Save Options

 BEGIN READING OUTPUT CONTROL FOR STRESS PERIOD 6
      ALL TIME STEPS WILL BE SAVED
      ALL TIME STEPS WILL BE SAVED

 END READING OUTPUT CONTROL FOR STRESS PERIOD 6


 PROCESSING STORAGE PERIOD DATA
 END PROCESSING STORAGE PERIOD DATA


 STRESS PERIOD 6 IS TRANSIENT


 REUSING DRNS FROM LAST STRESS PERIOD

 REUSING RIVS FROM LAST STRESS PERIOD

 REUSING RIVS FROM LAST STRESS PERIOD

 REUSING RCHS FROM LAST STRESS PERIOD
 UBDSV06 SAVING              DRN IN MODEL GWF_1            PACKAGE GWF_1           CONNECTED TO MODEL GWF_1            PACKAGE DRN_SYS1         ON UNIT   1018 AT TIME STEP      1, STRESS PERIOD      6
 UBDSV06 SAVING              RIV IN MODEL GWF_1            PACKAGE GWF_1           CONNECTED TO MODEL GWF_1            PACKAGE RIV_SYS1         ON UNIT   1018 AT TIME STEP      1, STRESS PERIOD      6
 UBDSV06 SAVING              RIV IN MODEL GWF_1            PACKAGE GWF_1           CONNECTED TO MODEL GWF_1            PACKAGE RIV_SYS2         ON UNIT   1018 AT TIME STEP      1, STRESS PERIOD      6

 HEAD WILL BE SAVED ON UNIT 1017 AT END OF TIME STEP    1, STRESS PERIOD    6


  VOLUME BUDGET FOR ENTIRE MODEL AT END OF TIME STEP    1, STRESS PERIOD   6
  ---------------------------------------------------------------------------------------------------

     CUMULATIVE VOLUME      L**3       RATES FOR THIS TIME STEP      L**3/T          PACKAGE NAME    
     ------------------                 ------------------------                     ----------------

           IN:                                      IN:
           ---                                      ---
              STO-SS =       86840.9285                STO-SS =        9353.4744     STORAGE                          
                 DRN =           0.0000                   DRN =           0.0000     DRN_SYS1                         
                 RIV =           0.0000                   RIV =           0.0000     RIV_SYS1                         
                 RIV =           0.0000                   RIV =           0.0000     RIV_SYS2                         
                 RCH =           0.0000                   RCH =           0.0000     RCH_MSW                          

            TOTAL IN =       86840.9285              TOTAL IN =        9353.4744

          OUT:                                     OUT:
          ----                                     ----
              STO-SS =           0.0000                STO-SS =           0.0000     STORAGE                          
                 DRN =        1550.5981                   DRN =         227.9661     DRN_SYS1                         
                 RIV =       80921.6806                   RIV =        8501.1693     RIV_SYS1                         
                 RIV =        4368.6575                   RIV =         624.3390     RIV_SYS2                         
                 RCH =           0.0000                   RCH =           0.0000     RCH_MSW                          

           TOTAL OUT =       86840.9362             TOTAL OUT =        9353.4744

            IN - OUT =      -7.7115E-03              IN - OUT =       9.3368E-07

 PERCENT DISCREPANCY =          -0.00     PERCENT DISCREPANCY =           0.00




         TIME SUMMARY AT END OF TIME STEP    1 IN STRESS PERIOD    6
                    SECONDS     MINUTES      HOURS       DAYS        YEARS
                    -----------------------------------------------------------
   TIME STEP LENGTH  86400.      1440.0      24.000      1.0000     2.73785E-03
 STRESS PERIOD TIME  86400.      1440.0      24.000      1.0000     2.73785E-03
         TOTAL TIME 5.18400E+05  8640.0      144.00      6.0000     1.64271E-02


end timestep


start timestep kper="7" kstp="1" mode="normal"

 #Stressperiod Save Options

 BEGIN READING OUTPUT CONTROL FOR STRESS PERIOD 7
      ALL TIME STEPS WILL BE SAVED
      ALL TIME STEPS WILL BE SAVED

 END READING OUTPUT CONTROL FOR STRESS PERIOD 7


 PROCESSING STORAGE PERIOD DATA
 END PROCESSING STORAGE PERIOD DATA


 STRESS PERIOD 7 IS TRANSIENT


 REUSING DRNS FROM LAST STRESS PERIOD

 REUSING RIVS FROM LAST STRESS PERIOD

 REUSING RIVS FROM LAST STRESS PERIOD

 REUSING RCHS FROM LAST STRESS PERIOD
 UBDSV06 SAVING              DRN IN MODEL GWF_1            PACKAGE GWF_1           CONNECTED TO MODEL GWF_1            PACKAGE DRN_SYS1         ON UNIT   1018 AT TIME STEP      1, STRESS PERIOD      7
 UBDSV06 SAVING              RIV IN MODEL GWF_1            PACKAGE GWF_1           CONNECTED TO MODEL GWF_1            PACKAGE RIV_SYS1         ON UNIT   1018 AT TIME STEP      1, STRESS PERIOD      7
 UBDSV06 SAVING              RIV IN MODEL GWF_1            PACKAGE GWF_1           CONNECTED TO MODEL GWF_1            PACKAGE RIV_SYS2         ON UNIT   1018 AT TIME STEP      1, STRESS PERIOD      7

 HEAD WILL BE SAVED ON UNIT 1017 AT END OF TIME STEP    1, STRESS PERIOD    7


  VOLUME BUDGET FOR ENTIRE MODEL AT END OF TIME STEP    1, STRESS PERIOD   7
  ---------------------------------------------------------------------------------------------------

     CUMULATIVE VOLUME      L**3       RATES FOR THIS TIME STEP      L**3/T          PACKAGE NAME    
     ------------------                 ------------------------                     ----------------

           IN:                                      IN:
           ---                                      ---
              STO-SS =       95344.0638                STO-SS =        8503.1354     STORAGE                          
                 DRN =           0.0000                   DRN =           0.0000     DRN_SYS1                         
                 RIV =           0.0000                   RIV =           0.0000     RIV_SYS1                         
                 RIV =           0.0000                   RIV =           0.0000     RIV_SYS2                         
                 RCH =           0.0000                   RCH =           0.0000     RCH_MSW                          

            TOTAL IN =       95344.0638              TOTAL IN =        8503.1354

          OUT:                                     OUT:
          ----                                     ----
              STO-SS =           0.0000                STO-SS =           0.0000     STORAGE                          
                 DRN =        1767.0640                   DRN =         216.4659     DRN_SYS1                         
                 RIV =       88620.0879                   RIV =        7698.4073     RIV_SYS1                         
                 RIV =        4956.9197                   RIV =         588.2622     RIV_SYS2                         
                 RCH =           0.0000                   RCH =           0.0000     RCH_MSW                          

           TOTAL OUT =       95344.0715             TOTAL OUT =        8503.1354

            IN - OUT =      -7.7214E-03              IN - OUT =      -9.8898E-06

 PERCENT DISCREPANCY =          -0.00     PERCENT DISCREPANCY =          -0.00




         TIME SUMMARY AT END OF TIME STEP    1 IN STRESS PERIOD    7
                    SECONDS     MINUTES      HOURS       DAYS        YEARS
                    -----------------------------------------------------------
   TIME STEP LENGTH  86400.      1440.0      24.000      1.0000     2.73785E-03
 STRESS PERIOD TIME  86400.      1440.0      24.000      1.0000     2.73785E-03
         TOTAL TIME 6.04800E+05  10080.      168.00      7.0000     1.91650E-02


end timestep


start timestep kper="8" kstp="1" mode="normal"

 #Stressperiod Save Options

 BEGIN READING OUTPUT CONTROL FOR STRESS PERIOD 8
      ALL TIME STEPS WILL BE SAVED
      ALL TIME STEPS WILL BE SAVED

 END READING OUTPUT CONTROL FOR STRESS PERIOD 8


 PROCESSING STORAGE PERIOD DATA
 END PROCESSING STORAGE PERIOD DATA


 STRESS PERIOD 8 IS TRANSIENT


 REUSING DRNS FROM LAST STRESS PERIOD

 REUSING RIVS FROM LAST STRESS PERIOD

 REUSING RIVS FROM LAST STRESS PERIOD

 REUSING RCHS FROM LAST STRESS PERIOD
 UBDSV06 SAVING              DRN IN MODEL GWF_1            PACKAGE GWF_1           CONNECTED TO MODEL GWF_1            PACKAGE DRN_SYS1         ON UNIT   1018 AT TIME STEP      1, STRESS PERIOD      8
 UBDSV06 SAVING              RIV IN MODEL GWF_1            PACKAGE GWF_1           CONNECTED TO MODEL GWF_1            PACKAGE RIV_SYS1         ON UNIT   1018 AT TIME STEP      1, STRESS PERIOD      8
 UBDSV06 SAVING              RIV IN MODEL GWF_1            PACKAGE GWF_1           CONNECTED TO MODEL GWF_1            PACKAGE RIV_SYS2         ON UNIT   1018 AT TIME STEP      1, STRESS PERIOD      8

 HEAD WILL BE SAVED ON UNIT 1017 AT END OF TIME STEP    1, STRESS PERIOD    8


  VOLUME BUDGET FOR ENTIRE MODEL AT END OF TIME STEP    1, STRESS PERIOD   8
  ---------------------------------------------------------------------------------------------------

     CUMULATIVE VOLUME      L**3       RATES FOR THIS TIME STEP      L**3/T          PACKAGE NAME    
     ------------------                 ------------------------                     ----------------

           IN:                                      IN:
           ---                                      ---
              STO-SS =      103143.3345                STO-SS =        7799.2707     STORAGE                          
                 DRN =           0.0000                   DRN =           0.0000     DRN_SYS1                         
                 RIV =           2.7315                   RIV =           2.7315     RIV_SYS1                         
                 RIV =           0.0000                   RIV =           0.0000     RIV_SYS2                         
                 RCH =           0.0000                   RCH =           0.0000     RCH_MSW                          

            TOTAL IN =      103146.0660              TOTAL IN =        7802.0022

          OUT:                                     OUT:
          ----                                     ----
              STO-SS =           0.0000                STO-SS =           0.0000     STORAGE                          
                 DRN =        1972.6122                   DRN =         205.5482     DRN_SYS1                         
                 RIV =       95661.8564                   RIV =        7041.7685     RIV_SYS1                         
                 RIV =        5511.6051                   RIV =         554.6854     RIV_SYS2                         
                 RCH =           0.0000                   RCH =           0.0000     RCH_MSW                          

           TOTAL OUT =      103146.0737             TOTAL OUT =        7802.0022

            IN - OUT =      -7.7515E-03              IN - OUT =      -3.0088E-05

 PERCENT DISCREPANCY =          -0.00     PERCENT DISCREPANCY =          -0.00




         TIME SUMMARY AT END OF TIME STEP    1 IN STRESS PERIOD    8
                    SECONDS     MINUTES      HOURS       DAYS        YEARS
                    -----------------------------------------------------------
   TIME STEP LENGTH  86400.      1440.0      24.000      1.0000     2.73785E-03
 STRESS PERIOD TIME  86400.      1440.0      24.000      1.0000     2.73785E-03
         TOTAL TIME 6.91200E+05  11520.      192.00      8.0000     2.19028E-02


end timestep


start timestep kper="9" kstp="1" mode="normal"

 #Stressperiod Save Options

 BEGIN READING OUTPUT CONTROL FOR STRESS PERIOD 9
      ALL TIME STEPS WILL BE SAVED
      ALL TIME STEPS WILL BE SAVED

 END READING OUTPUT CONTROL FOR STRESS PERIOD 9


 PROCESSING STORAGE PERIOD DATA
 END PROCESSING STORAGE PERIOD DATA


 STRESS PERIOD 9 IS TRANSIENT


 REUSING DRNS FROM LAST STRESS PERIOD

 REUSING RIVS FROM LAST STRESS PERIOD

 REUSING RIVS FROM LAST STRESS PERIOD

 REUSING RCHS FROM LAST STRESS PERIOD
 UBDSV06 SAVING              DRN IN MODEL GWF_1            PACKAGE GWF_1           CONNECTED TO MODEL GWF_1            PACKAGE DRN_SYS1         ON UNIT   1018 AT TIME STEP      1, STRESS PERIOD      9
 UBDSV06 SAVING              RIV IN MODEL GWF_1            PACKAGE GWF_1           CONNECTED TO MODEL GWF_1            PACKAGE RIV_SYS1         ON UNIT   1018 AT TIME STEP      1, STRESS PERIOD      9
 UBDSV06 SAVING              RIV IN MODEL GWF_1            PACKAGE GWF_1           CONNECTED TO MODEL GWF_1            PACKAGE RIV_SYS2         ON UNIT   1018 AT TIME STEP      1, STRESS PERIOD      9

 HEAD WILL BE SAVED ON UNIT 1017 AT END OF TIME STEP    1, STRESS PERIOD    9


  VOLUME BUDGET FOR ENTIRE MODEL AT END OF TIME STEP    1, STRESS PERIOD   9
  ---------------------------------------------------------------------------------------------------

     CUMULATIVE VOLUME      L**3       RATES FOR THIS TIME STEP      L**3/T          PACKAGE NAME    
     ------------------                 ------------------------                     ----------------

           IN:                                      IN:
           ---                                      ---
              STO-SS =      110343.8322                STO-SS =        7200.4977     STORAGE                          
                 DRN =           0.0000                   DRN =           0.0000     DRN_SYS1                         
                 RIV =           8.6876                   RIV =           5.9561     RIV_SYS1                         
                 RIV =           0.0000                   RIV =           0.0000     RIV_SYS2                         
                 RCH =           0.0000                   RCH =           0.0000     RCH_MSW                          

            TOTAL IN =      110352.5198              TOTAL IN =        7206.4539

          OUT:                                     OUT:
          ----                                     ----
              STO-SS =           0.0000                STO-SS =           0.0000     STORAGE                          
                 DRN =        2167.8309                   DRN =         195.2188     DRN_SYS1                         
                 RIV =      102149.6156                   RIV =        6487.7591     RIV_SYS1                         
                 RIV =        6035.0810                   RIV =         523.4759     RIV_SYS2                         
                 RCH =           0.0000                   RCH =           0.0000     RCH_MSW                          

           TOTAL OUT =      110352.5276             TOTAL OUT =        7206.4538

            IN - OUT =      -7.7404E-03              IN - OUT =       1.1109E-05

 PERCENT DISCREPANCY =          -0.00     PERCENT DISCREPANCY =           0.00




         TIME SUMMARY AT END OF TIME STEP    1 IN STRESS PERIOD    9
                    SECONDS     MINUTES      HOURS       DAYS        YEARS
                    -----------------------------------------------------------
   TIME STEP LENGTH  86400.      1440.0      24.000      1.0000     2.73785E-03
 STRESS PERIOD TIME  86400.      1440.0      24.000      1.0000     2.73785E-03
         TOTAL TIME 7.77600E+05  12960.      216.00      9.0000     2.46407E-02


end timestep


start timestep kper="10" kstp="1" mode="normal"

 #Stressperiod Save Options

 BEGIN READING OUTPUT CONTROL FOR STRESS PERIOD 10
      ALL TIME STEPS WILL BE SAVED
      ALL TIME STEPS WILL BE SAVED

 END READING OUTPUT CONTROL FOR STRESS PERIOD 10


 PROCESSING STORAGE PERIOD DATA
 END PROCESSING STORAGE PERIOD DATA


 STRESS PERIOD 10 IS TRANSIENT


 REUSING DRNS FROM LAST STRESS PERIOD

 REUSING RIVS FROM LAST STRESS PERIOD

 REUSING RIVS FROM LAST STRESS PERIOD

 REUSING RCHS FROM LAST STRESS PERIOD
 UBDSV06 SAVING              DRN IN MODEL GWF_1            PACKAGE GWF_1           CONNECTED TO MODEL GWF_1            PACKAGE DRN_SYS1         ON UNIT   1018 AT TIME STEP      1, STRESS PERIOD     10
 UBDSV06 SAVING              RIV IN MODEL GWF_1            PACKAGE GWF_1           CONNECTED TO MODEL GWF_1            PACKAGE RIV_SYS1         ON UNIT   1018 AT TIME STEP      1, STRESS PERIOD     10
 UBDSV06 SAVING              RIV IN MODEL GWF_1            PACKAGE GWF_1           CONNECTED TO MODEL GWF_1            PACKAGE RIV_SYS2         ON UNIT   1018 AT TIME STEP      1, STRESS PERIOD     10

 HEAD WILL BE SAVED ON UNIT 1017 AT END OF TIME STEP    1, STRESS PERIOD   10


  VOLUME BUDGET FOR ENTIRE MODEL AT END OF TIME STEP    1, STRESS PERIOD  10
  ---------------------------------------------------------------------------------------------------

     CUMULATIVE VOLUME      L**3       RATES FOR THIS TIME STEP      L**3/T          PACKAGE NAME    
     ------------------                 ------------------------                     ----------------

           IN:                                      IN:
           ---                                      ---
              STO-SS =      117024.3869                STO-SS =        6680.5547     STORAGE                          
                 DRN =           0.0000                   DRN =           0.0000     DRN_SYS1                         
                 RIV =          30.3814                   RIV =          21.6938     RIV_SYS1                         
                 RIV =           0.0000                   RIV =           0.0000     RIV_SYS2                         
                 RCH =           0.0000                   RCH =           0.0000     RCH_MSW                          

            TOTAL IN =      117054.7683              TOTAL IN =        6702.2485

          OUT:                                     OUT:
          ----                                     ----
              STO-SS =           0.0000                STO-SS =           0.0000     STORAGE                          
                 DRN =        2353.2902                   DRN =         185.4592     DRN_SYS1                         
                 RIV =      108171.9448                   RIV =        6022.3292     RIV_SYS1                         
                 RIV =        6529.5411                   RIV =         494.4600     RIV_SYS2                         
                 RCH =           0.0000                   RCH =           0.0000     RCH_MSW                          

           TOTAL OUT =      117054.7760             TOTAL OUT =        6702.2485

            IN - OUT =      -7.6803E-03              IN - OUT =       6.0099E-05

 PERCENT DISCREPANCY =          -0.00     PERCENT DISCREPANCY =           0.00




         TIME SUMMARY AT END OF TIME STEP    1 IN STRESS PERIOD   10
                    SECONDS     MINUTES      HOURS       DAYS        YEARS
                    -----------------------------------------------------------
   TIME STEP LENGTH  86400.      1440.0      24.000      1.0000     2.73785E-03
 STRESS PERIOD TIME  86400.      1440.0      24.000      1.0000     2.73785E-03
         TOTAL TIME 8.64000E+05  14400.      240.00      10.000     2.73785E-02


end timestep


start timestep kper="11" kstp="1" mode="normal"

 #Stressperiod Save Options

 BEGIN READING OUTPUT CONTROL FOR STRESS PERIOD 11
      ALL TIME STEPS WILL BE SAVED
      ALL TIME STEPS WILL BE SAVED

 END READING OUTPUT CONTROL FOR STRESS PERIOD 11


 PROCESSING STORAGE PERIOD DATA
 END PROCESSING STORAGE PERIOD DATA


 STRESS PERIOD 11 IS TRANSIENT


 REUSING DRNS FROM LAST STRESS PERIOD

 REUSING RIVS FROM LAST STRESS PERIOD

 REUSING RIVS FROM LAST STRESS PERIOD

 REUSING RCHS FROM LAST STRESS PERIOD
 UBDSV06 SAVING              DRN IN MODEL GWF_1            PACKAGE GWF_1           CONNECTED TO MODEL GWF_1            PACKAGE DRN_SYS1         ON UNIT   1018 AT TIME STEP      1, STRESS PERIOD     11
 UBDSV06 SAVING              RIV IN MODEL GWF_1            PACKAGE GWF_1           CONNECTED TO MODEL GWF_1            PACKAGE RIV_SYS1         ON UNIT   1018 AT TIME STEP      1, STRESS PERIOD     11
 UBDSV06 SAVING              RIV IN MODEL GWF_1            PACKAGE GWF_1           CONNECTED TO MODEL GWF_1            PACKAGE RIV_SYS2         ON UNIT   1018 AT TIME STEP      1, STRESS PERIOD     11

 HEAD WILL BE SAVED ON UNIT 1017 AT END OF TIME STEP    1, STRESS PERIOD   11


  VOLUME BUDGET FOR ENTIRE MODEL AT END OF TIME STEP    1, STRESS PERIOD  11
  ---------------------------------------------------------------------------------------------------

     CUMULATIVE VOLUME      L**3       RATES FOR THIS TIME STEP      L**3/T          PACKAGE NAME    
     ------------------                 ------------------------                     ----------------

           IN:                                      IN:
           ---                                      ---
              STO-SS =      123246.1872                STO-SS =        6221.8003     STORAGE                          
                 DRN =           0.0000                   DRN =           0.0000     DRN_SYS1                         
                 RIV =          74.3422                   RIV =          43.9608     RIV_SYS1                         
                 RIV =           0.0000                   RIV =           0.0000     RIV_SYS2                         
                 RCH =           0.0000                   RCH =           0.0000     RCH_MSW                          

            TOTAL IN =      123320.5294              TOTAL IN =        6265.7611

          OUT:                                     OUT:
          ----                                     ----
              STO-SS =           0.0000                STO-SS =           0.0000     STORAGE                          
                 DRN =        2529.5314                   DRN =         176.2413     DRN_SYS1                         
                 RIV =      113794.0081                   RIV =        5622.0633     RIV_SYS1                         
                 RIV =        6996.9975                   RIV =         467.4564     RIV_SYS2                         
                 RCH =           0.0000                   RCH =           0.0000     RCH_MSW                          

           TOTAL OUT =      123320.5370             TOTAL OUT =        6265.7610

            IN - OUT =      -7.5980E-03              IN - OUT =       8.2351E-05

 PERCENT DISCREPANCY =          -0.00     PERCENT DISCREPANCY =           0.00




         TIME SUMMARY AT END OF TIME STEP    1 IN STRESS PERIOD   11
                    SECONDS     MINUTES      HOURS       DAYS        YEARS
                    -----------------------------------------------------------
   TIME STEP LENGTH  86400.      1440.0      24.000      1.0000     2.73785E-03
 STRESS PERIOD TIME  86400.      1440.0      24.000      1.0000     2.73785E-03
         TOTAL TIME 9.50400E+05  15840.      264.00      11.000     3.01164E-02


end timestep


start timestep kper="12" kstp="1" mode="normal"

 #Stressperiod Save Options

 BEGIN READING OUTPUT CONTROL FOR STRESS PERIOD 12
      ALL TIME STEPS WILL BE SAVED
      ALL TIME STEPS WILL BE SAVED

 END READING OUTPUT CONTROL FOR STRESS PERIOD 12


 PROCESSING STORAGE PERIOD DATA
 END PROCESSING STORAGE PERIOD DATA


 STRESS PERIOD 12 IS TRANSIENT


 REUSING DRNS FROM LAST STRESS PERIOD

 REUSING RIVS FROM LAST STRESS PERIOD

 REUSING RIVS FROM LAST STRESS PERIOD

 REUSING RCHS FROM LAST STRESS PERIOD
 UBDSV06 SAVING              DRN IN MODEL GWF_1            PACKAGE GWF_1           CONNECTED TO MODEL GWF_1            PACKAGE DRN_SYS1         ON UNIT   1018 AT TIME STEP      1, STRESS PERIOD     12
 UBDSV06 SAVING              RIV IN MODEL GWF_1            PACKAGE GWF_1           CONNECTED TO MODEL GWF_1            PACKAGE RIV_SYS1         ON UNIT   1018 AT TIME STEP      1, STRESS PERIOD     12
 UBDSV06 SAVING              RIV IN MODEL GWF_1            PACKAGE GWF_1           CONNECTED TO MODEL GWF_1            PACKAGE RIV_SYS2         ON UNIT   1018 AT TIME STEP      1, STRESS PERIOD     12

 HEAD WILL BE SAVED ON UNIT 1017 AT END OF TIME STEP    1, STRESS PERIOD   12


  VOLUME BUDGET FOR ENTIRE MODEL AT END OF TIME STEP    1, STRESS PERIOD  12
  ---------------------------------------------------------------------------------------------------

     CUMULATIVE VOLUME      L**3       RATES FOR THIS TIME STEP      L**3/T          PACKAGE NAME    
     ------------------                 ------------------------                     ----------------

           IN:                                      IN:
           ---                                      ---
              STO-SS =      129058.0619                STO-SS =        5811.8747     STORAGE                          
                 DRN =           0.0000                   DRN =           0.0000     DRN_SYS1                         
                 RIV =         141.8956                   RIV =          67.5534     RIV_SYS1                         
                 RIV =           0.0000                   RIV =           0.0000     RIV_SYS2                         
                 RCH =           0.0000                   RCH =           0.0000     RCH_MSW                          

            TOTAL IN =      129199.9575              TOTAL IN =        5879.4281

          OUT:                                     OUT:
          ----                                     ----
              STO-SS =           0.0000                STO-SS =           0.0000     STORAGE                          
                 DRN =        2697.0646                   DRN =         167.5331     DRN_SYS1                         
                 RIV =      119063.6109                   RIV =        5269.6028     RIV_SYS1                         
                 RIV =        7439.2896                   RIV =         442.2921     RIV_SYS2                         
                 RCH =           0.0000                   RCH =           0.0000     RCH_MSW                          

           TOTAL OUT =      129199.9650             TOTAL OUT =        5879.4280

            IN - OUT =      -7.5181E-03              IN - OUT =       7.9802E-05

 PERCENT DISCREPANCY =          -0.00     PERCENT DISCREPANCY =           0.00




         TIME SUMMARY AT END OF TIME STEP    1 IN STRESS PERIOD   12
                    SECONDS     MINUTES      HOURS       DAYS        YEARS
                    -----------------------------------------------------------
   TIME STEP LENGTH  86400.      1440.0      24.000      1.0000     2.73785E-03
 STRESS PERIOD TIME  86400.      1440.0      24.000      1.0000     2.73785E-03
         TOTAL TIME 1.03680E+06  17280.      288.00      12.000     3.28542E-02


end timestep


start timestep kper="13" kstp="1" mode="normal"

 #Stressperiod Save Options

 BEGIN READING OUTPUT CONTROL FOR STRESS PERIOD 13
      ALL TIME STEPS WILL BE SAVED
      ALL TIME STEPS WILL BE SAVED

 END READING OUTPUT CONTROL FOR STRESS PERIOD 13


 PROCESSING STORAGE PERIOD DATA
 END PROCESSING STORAGE PERIOD DATA


 STRESS PERIOD 13 IS TRANSIENT


 REUSING DRNS FROM LAST STRESS PERIOD

 REUSING RIVS FROM LAST STRESS PERIOD

 REUSING RIVS FROM LAST STRESS PERIOD

 REUSING RCHS FROM LAST STRESS PERIOD
 UBDSV06 SAVING              DRN IN MODEL GWF_1            PACKAGE GWF_1           CONNECTED TO MODEL GWF_1            PACKAGE DRN_SYS1         ON UNIT   1018 AT TIME STEP      1, STRESS PERIOD     13
 UBDSV06 SAVING              RIV IN MODEL GWF_1            PACKAGE GWF_1           CONNECTED TO MODEL GWF_1            PACKAGE RIV_SYS1         ON UNIT   1018 AT TIME STEP      1, STRESS PERIOD     13
 UBDSV06 SAVING              RIV IN MODEL GWF_1            PACKAGE GWF_1           CONNECTED TO MODEL GWF_1            PACKAGE RIV_SYS2         ON UNIT   1018 AT TIME STEP      1, STRESS PERIOD     13

 HEAD WILL BE SAVED ON UNIT 1017 AT END OF TIME STEP    1, STRESS PERIOD   13


  VOLUME BUDGET FOR ENTIRE MODEL AT END OF TIME STEP    1, STRESS PERIOD  13
  ---------------------------------------------------------------------------------------------------

     CUMULATIVE VOLUME      L**3       RATES FOR THIS TIME STEP      L**3/T          PACKAGE NAME    
     ------------------                 ------------------------                     ----------------

           IN:                                      IN:
           ---                                      ---
              STO-SS =      134499.8952                STO-SS =        5441.8333     STORAGE                          
                 DRN =           0.0000                   DRN =           0.0000     DRN_SYS1                         
                 RIV =         238.2489                   RIV =          96.3532     RIV_SYS1                         
                 RIV =           0.0000                   RIV =           0.0000     RIV_SYS2                         
                 RCH =           0.0000                   RCH =           0.0000     RCH_MSW                          

            TOTAL IN =      134738.1441              TOTAL IN =        5538.1865

          OUT:                                     OUT:
          ----                                     ----
              STO-SS =           0.0000                STO-SS =           0.0000     STORAGE                          
                 DRN =        2856.3678                   DRN =         159.3032     DRN_SYS1                         
                 RIV =      124023.6856                   RIV =        4960.0747     RIV_SYS1                         
                 RIV =        7858.0981                   RIV =         418.8085     RIV_SYS2                         
                 RCH =           0.0000                   RCH =           0.0000     RCH_MSW                          

           TOTAL OUT =      134738.1515             TOTAL OUT =        5538.1865

            IN - OUT =      -7.4553E-03              IN - OUT =       6.2845E-05

 PERCENT DISCREPANCY =          -0.00     PERCENT DISCREPANCY =           0.00




         TIME SUMMARY AT END OF TIME STEP    1 IN STRESS PERIOD   13
                    SECONDS     MINUTES      HOURS       DAYS        YEARS
                    -----------------------------------------------------------
   TIME STEP LENGTH  86400.      1440.0      24.000      1.0000     2.73785E-03
 STRESS PERIOD TIME  86400.      1440.0      24.000      1.0000     2.73785E-03
         TOTAL TIME 1.12320E+06  18720.      312.00      13.000     3.55921E-02


end timestep


start timestep kper="14" kstp="1" mode="normal"

 #Stressperiod Save Options

 BEGIN READING OUTPUT CONTROL FOR STRESS PERIOD 14
      ALL TIME STEPS WILL BE SAVED
      ALL TIME STEPS WILL BE SAVED

 END READING OUTPUT CONTROL FOR STRESS PERIOD 14


 PROCESSING STORAGE PERIOD DATA
 END PROCESSING STORAGE PERIOD DATA


 STRESS PERIOD 14 IS TRANSIENT


 REUSING DRNS FROM LAST STRESS PERIOD

 REUSING RIVS FROM LAST STRESS PERIOD

 REUSING RIVS FROM LAST STRESS PERIOD

 REUSING RCHS FROM LAST STRESS PERIOD
 UBDSV06 SAVING              DRN IN MODEL GWF_1            PACKAGE GWF_1           CONNECTED TO MODEL GWF_1            PACKAGE DRN_SYS1         ON UNIT   1018 AT TIME STEP      1, STRESS PERIOD     14
 UBDSV06 SAVING              RIV IN MODEL GWF_1            PACKAGE GWF_1           CONNECTED TO MODEL GWF_1            PACKAGE RIV_SYS1         ON UNIT   1018 AT TIME STEP      1, STRESS PERIOD     14
 UBDSV06 SAVING              RIV IN MODEL GWF_1            PACKAGE GWF_1           CONNECTED TO MODEL GWF_1            PACKAGE RIV_SYS2         ON UNIT   1018 AT TIME STEP      1, STRESS PERIOD     14

 HEAD WILL BE SAVED ON UNIT 1017 AT END OF TIME STEP    1, STRESS PERIOD   14


  VOLUME BUDGET FOR ENTIRE MODEL AT END OF TIME STEP    1, STRESS PERIOD  14
  ---------------------------------------------------------------------------------------------------

     CUMULATIVE VOLUME      L**3       RATES FOR THIS TIME STEP      L**3/T          PACKAGE NAME    
     ------------------                 ------------------------                     ----------------

           IN:                                      IN:
           ---                                      ---
              STO-SS =      139604.9273                STO-SS =        5105.0321     STORAGE                          
                 DRN =           0.0000                   DRN =           0.0000     DRN_SYS1                         
                 RIV =         367.5272                   RIV =         129.2784     RIV_SYS1                         
                 RIV =           0.0000                   RIV =           0.0000     RIV_SYS2                         
                 RCH =           0.0000                   RCH =           0.0000     RCH_MSW                          

            TOTAL IN =      139972.4546              TOTAL IN =        5234.3105

          OUT:                                     OUT:
          ----                                     ----
              STO-SS =           0.0000                STO-SS =           0.0000     STORAGE                          
                 DRN =        3007.8894                   DRN =         151.5216     DRN_SYS1                         
                 RIV =      128709.6111                   RIV =        4685.9255     RIV_SYS1                         
                 RIV =        8254.9615                   RIV =         396.8634     RIV_SYS2                         
                 RCH =           0.0000                   RCH =           0.0000     RCH_MSW                          

           TOTAL OUT =      139972.4620             TOTAL OUT =        5234.3105

            IN - OUT =      -7.4158E-03              IN - OUT =       3.9469E-05

 PERCENT DISCREPANCY =          -0.00     PERCENT DISCREPANCY =           0.00




         TIME SUMMARY AT END OF TIME STEP    1 IN STRESS PERIOD   14
                    SECONDS     MINUTES      HOURS       DAYS        YEARS
                    -----------------------------------------------------------
   TIME STEP LENGTH  86400.      1440.0      24.000      1.0000     2.73785E-03
 STRESS PERIOD TIME  86400.      1440.0      24.000      1.0000     2.73785E-03
         TOTAL TIME 1.20960E+06  20160.      336.00      14.000     3.83299E-02


end timestep


start timestep kper="15" kstp="1" mode="normal"

 #Stressperiod Save Options

 BEGIN READING OUTPUT CONTROL FOR STRESS PERIOD 15
      ALL TIME STEPS WILL BE SAVED
      ALL TIME STEPS WILL BE SAVED

 END READING OUTPUT CONTROL FOR STRESS PERIOD 15


 PROCESSING STORAGE PERIOD DATA
 END PROCESSING STORAGE PERIOD DATA


 STRESS PERIOD 15 IS TRANSIENT


 REUSING DRNS FROM LAST STRESS PERIOD

 REUSING RIVS FROM LAST STRESS PERIOD

 REUSING RIVS FROM LAST STRESS PERIOD

 REUSING RCHS FROM LAST STRESS PERIOD
 UBDSV06 SAVING              DRN IN MODEL GWF_1            PACKAGE GWF_1           CONNECTED TO MODEL GWF_1            PACKAGE DRN_SYS1         ON UNIT   1018 AT TIME STEP      1, STRESS PERIOD     15
 UBDSV06 SAVING              RIV IN MODEL GWF_1            PACKAGE GWF_1           CONNECTED TO MODEL GWF_1            PACKAGE RIV_SYS1         ON UNIT   1018 AT TIME STEP      1, STRESS PERIOD     15
 UBDSV06 SAVING              RIV IN MODEL GWF_1            PACKAGE GWF_1           CONNECTED TO MODEL GWF_1            PACKAGE RIV_SYS2         ON UNIT   1018 AT TIME STEP      1, STRESS PERIOD     15

 HEAD WILL BE SAVED ON UNIT 1017 AT END OF TIME STEP    1, STRESS PERIOD   15


  VOLUME BUDGET FOR ENTIRE MODEL AT END OF TIME STEP    1, STRESS PERIOD  15
  ---------------------------------------------------------------------------------------------------

     CUMULATIVE VOLUME      L**3       RATES FOR THIS TIME STEP      L**3/T          PACKAGE NAME    
     ------------------                 ------------------------                     ----------------

           IN:                                      IN:
           ---                                      ---
              STO-SS =      144401.3525                STO-SS =        4796.4251     STORAGE                          
                 DRN =           0.0000                   DRN =           0.0000     DRN_SYS1                         
                 RIV =         534.1349                   RIV =         166.6076     RIV_SYS1                         
                 RIV =           0.0000                   RIV =           0.0000     RIV_SYS2                         
                 RCH =           0.0000                   RCH =           0.0000     RCH_MSW                          

            TOTAL IN =      144935.4873              TOTAL IN =        4963.0327

          OUT:                                     OUT:
          ----                                     ----
              STO-SS =           0.0000                STO-SS =           0.0000     STORAGE                          
                 DRN =        3152.0497                   DRN =         144.1603     DRN_SYS1                         
                 RIV =      133152.1535                   RIV =        4442.5424     RIV_SYS1                         
                 RIV =        8631.2916                   RIV =         376.3300     RIV_SYS2                         
                 RCH =           0.0000                   RCH =           0.0000     RCH_MSW                          

           TOTAL OUT =      144935.4947             TOTAL OUT =        4963.0327

            IN - OUT =      -7.4014E-03              IN - OUT =       1.4414E-05

 PERCENT DISCREPANCY =          -0.00     PERCENT DISCREPANCY =           0.00




         TIME SUMMARY AT END OF TIME STEP    1 IN STRESS PERIOD   15
                    SECONDS     MINUTES      HOURS       DAYS        YEARS
                    -----------------------------------------------------------
   TIME STEP LENGTH  86400.      1440.0      24.000      1.0000     2.73785E-03
 STRESS PERIOD TIME  86400.      1440.0      24.000      1.0000     2.73785E-03
         TOTAL TIME 1.29600E+06  21600.      360.00      15.000     4.10678E-02


end timestep


start timestep kper="16" kstp="1" mode="normal"

 #Stressperiod Save Options

 BEGIN READING OUTPUT CONTROL FOR STRESS PERIOD 16
      ALL TIME STEPS WILL BE SAVED
      ALL TIME STEPS WILL BE SAVED

 END READING OUTPUT CONTROL FOR STRESS PERIOD 16


 PROCESSING STORAGE PERIOD DATA
 END PROCESSING STORAGE PERIOD DATA


 STRESS PERIOD 16 IS TRANSIENT


 REUSING DRNS FROM LAST STRESS PERIOD

 REUSING RIVS FROM LAST STRESS PERIOD

 REUSING RIVS FROM LAST STRESS PERIOD

 REUSING RCHS FROM LAST STRESS PERIOD
 UBDSV06 SAVING              DRN IN MODEL GWF_1            PACKAGE GWF_1           CONNECTED TO MODEL GWF_1            PACKAGE DRN_SYS1         ON UNIT   1018 AT TIME STEP      1, STRESS PERIOD     16
 UBDSV06 SAVING              RIV IN MODEL GWF_1            PACKAGE GWF_1           CONNECTED TO MODEL GWF_1            PACKAGE RIV_SYS1         ON UNIT   1018 AT TIME STEP      1, STRESS PERIOD     16
 UBDSV06 SAVING              RIV IN MODEL GWF_1            PACKAGE GWF_1           CONNECTED TO MODEL GWF_1            PACKAGE RIV_SYS2         ON UNIT   1018 AT TIME STEP      1, STRESS PERIOD     16

 HEAD WILL BE SAVED ON UNIT 1017 AT END OF TIME STEP    1, STRESS PERIOD   16


  VOLUME BUDGET FOR ENTIRE MODEL AT END OF TIME STEP    1, STRESS PERIOD  16
  ---------------------------------------------------------------------------------------------------

     CUMULATIVE VOLUME      L**3       RATES FOR THIS TIME STEP      L**3/T          PACKAGE NAME    
     ------------------                 ------------------------                     ----------------

           IN:                                      IN:
           ---                                      ---
              STO-SS =      148913.4560                STO-SS =        4512.1035     STORAGE                          
                 DRN =           0.0000                   DRN =           0.0000     DRN_SYS1                         
                 RIV =         734.8097                   RIV =         200.6748     RIV_SYS1                         
                 RIV =           0.0000                   RIV =           0.0000     RIV_SYS2                         
                 RCH =           0.0000                   RCH =           0.0000     RCH_MSW                          

            TOTAL IN =      149648.2656              TOTAL IN =        4712.7783

          OUT:                                     OUT:
          ----                                     ----
              STO-SS =           0.0000                STO-SS =           0.0000     STORAGE                          
                 DRN =        3289.2430                   DRN =         137.1933     DRN_SYS1                         
                 RIV =      137370.6429                   RIV =        4218.4894     RIV_SYS1                         
                 RIV =        8988.3871                   RIV =         357.0956     RIV_SYS2                         
                 RCH =           0.0000                   RCH =           0.0000     RCH_MSW                          

           TOTAL OUT =      149648.2731             TOTAL OUT =        4712.7783

            IN - OUT =      -7.4112E-03              IN - OUT =      -9.7664E-06

 PERCENT DISCREPANCY =          -0.00     PERCENT DISCREPANCY =          -0.00




         TIME SUMMARY AT END OF TIME STEP    1 IN STRESS PERIOD   16
                    SECONDS     MINUTES      HOURS       DAYS        YEARS
                    -----------------------------------------------------------
   TIME STEP LENGTH  86400.      1440.0      24.000      1.0000     2.73785E-03
 STRESS PERIOD TIME  86400.      1440.0      24.000      1.0000     2.73785E-03
         TOTAL TIME 1.38240E+06  23040.      384.00      16.000     4.38056E-02


end timestep


start timestep kper="17" kstp="1" mode="normal"

 #Stressperiod Save Options

 BEGIN READING OUTPUT CONTROL FOR STRESS PERIOD 17
      ALL TIME STEPS WILL BE SAVED
      ALL TIME STEPS WILL BE SAVED

 END READING OUTPUT CONTROL FOR STRESS PERIOD 17


 PROCESSING STORAGE PERIOD DATA
 END PROCESSING STORAGE PERIOD DATA


 STRESS PERIOD 17 IS TRANSIENT


 REUSING DRNS FROM LAST STRESS PERIOD

 REUSING RIVS FROM LAST STRESS PERIOD

 REUSING RIVS FROM LAST STRESS PERIOD

 REUSING RCHS FROM LAST STRESS PERIOD
 UBDSV06 SAVING              DRN IN MODEL GWF_1            PACKAGE GWF_1           CONNECTED TO MODEL GWF_1            PACKAGE DRN_SYS1         ON UNIT   1018 AT TIME STEP      1, STRESS PERIOD     17
 UBDSV06 SAVING              RIV IN MODEL GWF_1            PACKAGE GWF_1           CONNECTED TO MODEL GWF_1            PACKAGE RIV_SYS1         ON UNIT   1018 AT TIME STEP      1, STRESS PERIOD     17
 UBDSV06 SAVING              RIV IN MODEL GWF_1            PACKAGE GWF_1           CONNECTED TO MODEL GWF_1            PACKAGE RIV_SYS2         ON UNIT   1018 AT TIME STEP      1, STRESS PERIOD     17

 HEAD WILL BE SAVED ON UNIT 1017 AT END OF TIME STEP    1, STRESS PERIOD   17


  VOLUME BUDGET FOR ENTIRE MODEL AT END OF TIME STEP    1, STRESS PERIOD  17
  ---------------------------------------------------------------------------------------------------

     CUMULATIVE VOLUME      L**3       RATES FOR THIS TIME STEP      L**3/T          PACKAGE NAME    
     ------------------                 ------------------------                     ----------------

           IN:                                      IN:
           ---                                      ---
              STO-SS =      153162.4405                STO-SS =        4248.9846     STORAGE                          
                 DRN =           0.0000                   DRN =           0.0000     DRN_SYS1                         
                 RIV =         982.6785                   RIV =         247.8689     RIV_SYS1                         
                 RIV =           0.0000                   RIV =           0.0000     RIV_SYS2                         
                 RCH =           0.0000                   RCH =           0.0000     RCH_MSW                          

            TOTAL IN =      154145.1191              TOTAL IN =        4496.8534

          OUT:                                     OUT:
          ----                                     ----
              STO-SS =           0.0000                STO-SS =           0.0000     STORAGE                          
                 DRN =        3419.8401                   DRN =         130.5970     DRN_SYS1                         
                 RIV =      141397.8397                   RIV =        4027.1968     RIV_SYS1                         
                 RIV =        9327.4467                   RIV =         339.0596     RIV_SYS2                         
                 RCH =           0.0000                   RCH =           0.0000     RCH_MSW                          

           TOTAL OUT =      154145.1265             TOTAL OUT =        4496.8535

            IN - OUT =      -7.4430E-03              IN - OUT =      -3.1792E-05

 PERCENT DISCREPANCY =          -0.00     PERCENT DISCREPANCY =          -0.00




         TIME SUMMARY AT END OF TIME STEP    1 IN STRESS PERIOD   17
                    SECONDS     MINUTES      HOURS       DAYS        YEARS
                    -----------------------------------------------------------
   TIME STEP LENGTH  86400.      1440.0      24.000      1.0000     2.73785E-03
 STRESS PERIOD TIME  86400.      1440.0      24.000      1.0000     2.73785E-03
         TOTAL TIME 1.46880E+06  24480.      408.00      17.000     4.65435E-02


end timestep


start timestep kper="18" kstp="1" mode="normal"

 #Stressperiod Save Options

 BEGIN READING OUTPUT CONTROL FOR STRESS PERIOD 18
      ALL TIME STEPS WILL BE SAVED
      ALL TIME STEPS WILL BE SAVED

 END READING OUTPUT CONTROL FOR STRESS PERIOD 18


 PROCESSING STORAGE PERIOD DATA
 END PROCESSING STORAGE PERIOD DATA


 STRESS PERIOD 18 IS TRANSIENT


 REUSING DRNS FROM LAST STRESS PERIOD

 REUSING RIVS FROM LAST STRESS PERIOD

 REUSING RIVS FROM LAST STRESS PERIOD

 REUSING RCHS FROM LAST STRESS PERIOD
 UBDSV06 SAVING              DRN IN MODEL GWF_1            PACKAGE GWF_1           CONNECTED TO MODEL GWF_1            PACKAGE DRN_SYS1         ON UNIT   1018 AT TIME STEP      1, STRESS PERIOD     18
 UBDSV06 SAVING              RIV IN MODEL GWF_1            PACKAGE GWF_1           CONNECTED TO MODEL GWF_1            PACKAGE RIV_SYS1         ON UNIT   1018 AT TIME STEP      1, STRESS PERIOD     18
 UBDSV06 SAVING              RIV IN MODEL GWF_1            PACKAGE GWF_1           CONNECTED TO MODEL GWF_1            PACKAGE RIV_SYS2         ON UNIT   1018 AT TIME STEP      1, STRESS PERIOD     18

 HEAD WILL BE SAVED ON UNIT 1017 AT END OF TIME STEP    1, STRESS PERIOD   18


  VOLUME BUDGET FOR ENTIRE MODEL AT END OF TIME STEP    1, STRESS PERIOD  18
  ---------------------------------------------------------------------------------------------------

     CUMULATIVE VOLUME      L**3       RATES FOR THIS TIME STEP      L**3/T          PACKAGE NAME    
     ------------------                 ------------------------                     ----------------

           IN:                                      IN:
           ---                                      ---
              STO-SS =      157167.0356                STO-SS =        4004.5951     STORAGE                          
                 DRN =           0.0000                   DRN =           0.0000     DRN_SYS1                         
                 RIV =        1275.8392                   RIV =         293.1606     RIV_SYS1                         
                 RIV =           0.0000                   RIV =           0.0000     RIV_SYS2                         
                 RCH =           0.0000                   RCH =           0.0000     RCH_MSW                          

            TOTAL IN =      158442.8748              TOTAL IN =        4297.7558

          OUT:                                     OUT:
          ----                                     ----
              STO-SS =           0.0000                STO-SS =           0.0000     STORAGE                          
                 DRN =        3544.1895                   DRN =         124.3495     DRN_SYS1                         
                 RIV =      145249.1139                   RIV =        3851.2742     RIV_SYS1                         
                 RIV =        9649.5788                   RIV =         322.1321     RIV_SYS2                         
                 RCH =           0.0000                   RCH =           0.0000     RCH_MSW                          

           TOTAL OUT =      158442.8823             TOTAL OUT =        4297.7558

            IN - OUT =      -7.4941E-03              IN - OUT =      -5.1102E-05

 PERCENT DISCREPANCY =          -0.00     PERCENT DISCREPANCY =          -0.00




         TIME SUMMARY AT END OF TIME STEP    1 IN STRESS PERIOD   18
                    SECONDS     MINUTES      HOURS       DAYS        YEARS
                    -----------------------------------------------------------
   TIME STEP LENGTH  86400.      1440.0      24.000      1.0000     2.73785E-03
 STRESS PERIOD TIME  86400.      1440.0      24.000      1.0000     2.73785E-03
         TOTAL TIME 1.55520E+06  25920.      432.00      18.000     4.92813E-02


end timestep


start timestep kper="19" kstp="1" mode="normal"

 #Stressperiod Save Options

 BEGIN READING OUTPUT CONTROL FOR STRESS PERIOD 19
      ALL TIME STEPS WILL BE SAVED
      ALL TIME STEPS WILL BE SAVED

 END READING OUTPUT CONTROL FOR STRESS PERIOD 19


 PROCESSING STORAGE PERIOD DATA
 END PROCESSING STORAGE PERIOD DATA


 STRESS PERIOD 19 IS TRANSIENT


 REUSING DRNS FROM LAST STRESS PERIOD

 REUSING RIVS FROM LAST STRESS PERIOD

 REUSING RIVS FROM LAST STRESS PERIOD

 REUSING RCHS FROM LAST STRESS PERIOD
[...]
                 RCH =           0.0000                   RCH =           0.0000     RCH_MSW                          

           TOTAL OUT =      645409.9883             TOTAL OUT =        1275.8375

            IN - OUT =          -1.7015              IN - OUT =      -1.3556E-06

 PERCENT DISCREPANCY =          -0.00     PERCENT DISCREPANCY =          -0.00




         TIME SUMMARY AT END OF TIME STEP    1 IN STRESS PERIOD  360
                    SECONDS     MINUTES      HOURS       DAYS        YEARS
                    -----------------------------------------------------------
   TIME STEP LENGTH  86400.      1440.0      24.000      1.0000     2.73785E-03
 STRESS PERIOD TIME  86400.      1440.0      24.000      1.0000     2.73785E-03
         TOTAL TIME 3.11040E+07 5.18400E+05  8640.0      360.00     0.98563    


end timestep


start timestep kper="361" kstp="1" mode="normal"

 #Stressperiod Save Options

 BEGIN READING OUTPUT CONTROL FOR STRESS PERIOD 361
      ALL TIME STEPS WILL BE SAVED
      ALL TIME STEPS WILL BE SAVED

 END READING OUTPUT CONTROL FOR STRESS PERIOD 361


 PROCESSING STORAGE PERIOD DATA
 END PROCESSING STORAGE PERIOD DATA


 STRESS PERIOD 361 IS TRANSIENT


 REUSING DRNS FROM LAST STRESS PERIOD

 REUSING RIVS FROM LAST STRESS PERIOD

 REUSING RIVS FROM LAST STRESS PERIOD

 REUSING RCHS FROM LAST STRESS PERIOD
 UBDSV06 SAVING              DRN IN MODEL GWF_1            PACKAGE GWF_1           CONNECTED TO MODEL GWF_1            PACKAGE DRN_SYS1         ON UNIT   1018 AT TIME STEP      1, STRESS PERIOD    361
 UBDSV06 SAVING              RIV IN MODEL GWF_1            PACKAGE GWF_1           CONNECTED TO MODEL GWF_1            PACKAGE RIV_SYS1         ON UNIT   1018 AT TIME STEP      1, STRESS PERIOD    361
 UBDSV06 SAVING              RIV IN MODEL GWF_1            PACKAGE GWF_1           CONNECTED TO MODEL GWF_1            PACKAGE RIV_SYS2         ON UNIT   1018 AT TIME STEP      1, STRESS PERIOD    361

 HEAD WILL BE SAVED ON UNIT 1017 AT END OF TIME STEP    1, STRESS PERIOD  361


  VOLUME BUDGET FOR ENTIRE MODEL AT END OF TIME STEP    1, STRESS PERIOD 361
  ---------------------------------------------------------------------------------------------------

     CUMULATIVE VOLUME      L**3       RATES FOR THIS TIME STEP      L**3/T          PACKAGE NAME    
     ------------------                 ------------------------                     ----------------

           IN:                                      IN:
           ---                                      ---
              STO-SS =      227438.2850                STO-SS =       3.7862E-05     STORAGE                          
                 DRN =           0.0000                   DRN =           0.0000     DRN_SYS1                         
                 RIV =      419245.8393                   RIV =        1275.8375     RIV_SYS1                         
                 RIV =           0.0000                   RIV =           0.0000     RIV_SYS2                         
                 RCH =           0.0000                   RCH =           0.0000     RCH_MSW                          

            TOTAL IN =      646684.1242              TOTAL IN =        1275.8375

          OUT:                                     OUT:
          ----                                     ----
              STO-SS =           0.0000                STO-SS =           0.0000     STORAGE                          
                 DRN =        8865.3214                   DRN =           9.3219     DRN_SYS1                         
                 RIV =      609687.2676                   RIV =        1226.8798     RIV_SYS1                         
                 RIV =       28133.2368                   RIV =          39.6358     RIV_SYS2                         
                 RCH =           0.0000                   RCH =           0.0000     RCH_MSW                          

           TOTAL OUT =      646685.8258             TOTAL OUT =        1275.8375

            IN - OUT =          -1.7015              IN - OUT =      -1.3824E-06

 PERCENT DISCREPANCY =          -0.00     PERCENT DISCREPANCY =          -0.00




         TIME SUMMARY AT END OF TIME STEP    1 IN STRESS PERIOD  361
                    SECONDS     MINUTES      HOURS       DAYS        YEARS
                    -----------------------------------------------------------
   TIME STEP LENGTH  86400.      1440.0      24.000      1.0000     2.73785E-03
 STRESS PERIOD TIME  86400.      1440.0      24.000      1.0000     2.73785E-03
         TOTAL TIME 3.11904E+07 5.19840E+05  8664.0      361.00     0.98836    


end timestep


start timestep kper="362" kstp="1" mode="normal"

 #Stressperiod Save Options

 BEGIN READING OUTPUT CONTROL FOR STRESS PERIOD 362
      ALL TIME STEPS WILL BE SAVED
      ALL TIME STEPS WILL BE SAVED

 END READING OUTPUT CONTROL FOR STRESS PERIOD 362


 PROCESSING STORAGE PERIOD DATA
 END PROCESSING STORAGE PERIOD DATA


 STRESS PERIOD 362 IS TRANSIENT


 REUSING DRNS FROM LAST STRESS PERIOD

 REUSING RIVS FROM LAST STRESS PERIOD

 REUSING RIVS FROM LAST STRESS PERIOD

 REUSING RCHS FROM LAST STRESS PERIOD
 UBDSV06 SAVING              DRN IN MODEL GWF_1            PACKAGE GWF_1           CONNECTED TO MODEL GWF_1            PACKAGE DRN_SYS1         ON UNIT   1018 AT TIME STEP      1, STRESS PERIOD    362
 UBDSV06 SAVING              RIV IN MODEL GWF_1            PACKAGE GWF_1           CONNECTED TO MODEL GWF_1            PACKAGE RIV_SYS1         ON UNIT   1018 AT TIME STEP      1, STRESS PERIOD    362
 UBDSV06 SAVING              RIV IN MODEL GWF_1            PACKAGE GWF_1           CONNECTED TO MODEL GWF_1            PACKAGE RIV_SYS2         ON UNIT   1018 AT TIME STEP      1, STRESS PERIOD    362

 HEAD WILL BE SAVED ON UNIT 1017 AT END OF TIME STEP    1, STRESS PERIOD  362


  VOLUME BUDGET FOR ENTIRE MODEL AT END OF TIME STEP    1, STRESS PERIOD 362
  ---------------------------------------------------------------------------------------------------

     CUMULATIVE VOLUME      L**3       RATES FOR THIS TIME STEP      L**3/T          PACKAGE NAME    
     ------------------                 ------------------------                     ----------------

           IN:                                      IN:
           ---                                      ---
              STO-SS =      227438.2850                STO-SS =       3.5836E-05     STORAGE                          
                 DRN =           0.0000                   DRN =           0.0000     DRN_SYS1                         
                 RIV =      420521.6768                   RIV =        1275.8375     RIV_SYS1                         
                 RIV =           0.0000                   RIV =           0.0000     RIV_SYS2                         
                 RCH =           0.0000                   RCH =           0.0000     RCH_MSW                          

            TOTAL IN =      647959.9618              TOTAL IN =        1275.8375

          OUT:                                     OUT:
          ----                                     ----
              STO-SS =           0.0000                STO-SS =           0.0000     STORAGE                          
                 DRN =        8874.6433                   DRN =           9.3219     DRN_SYS1                         
                 RIV =      610914.1474                   RIV =        1226.8798     RIV_SYS1                         
                 RIV =       28172.8726                   RIV =          39.6358     RIV_SYS2                         
                 RCH =           0.0000                   RCH =           0.0000     RCH_MSW                          

           TOTAL OUT =      647961.6633             TOTAL OUT =        1275.8375

            IN - OUT =          -1.7015              IN - OUT =      -1.4127E-06

 PERCENT DISCREPANCY =          -0.00     PERCENT DISCREPANCY =          -0.00




         TIME SUMMARY AT END OF TIME STEP    1 IN STRESS PERIOD  362
                    SECONDS     MINUTES      HOURS       DAYS        YEARS
                    -----------------------------------------------------------
   TIME STEP LENGTH  86400.      1440.0      24.000      1.0000     2.73785E-03
 STRESS PERIOD TIME  86400.      1440.0      24.000      1.0000     2.73785E-03
         TOTAL TIME 3.12768E+07 5.21280E+05  8688.0      362.00     0.99110    


end timestep


start timestep kper="363" kstp="1" mode="normal"

 #Stressperiod Save Options

 BEGIN READING OUTPUT CONTROL FOR STRESS PERIOD 363
      ALL TIME STEPS WILL BE SAVED
      ALL TIME STEPS WILL BE SAVED

 END READING OUTPUT CONTROL FOR STRESS PERIOD 363


 PROCESSING STORAGE PERIOD DATA
 END PROCESSING STORAGE PERIOD DATA


 STRESS PERIOD 363 IS TRANSIENT


 REUSING DRNS FROM LAST STRESS PERIOD

 REUSING RIVS FROM LAST STRESS PERIOD

 REUSING RIVS FROM LAST STRESS PERIOD

 REUSING RCHS FROM LAST STRESS PERIOD
 UBDSV06 SAVING              DRN IN MODEL GWF_1            PACKAGE GWF_1           CONNECTED TO MODEL GWF_1            PACKAGE DRN_SYS1         ON UNIT   1018 AT TIME STEP      1, STRESS PERIOD    363
 UBDSV06 SAVING              RIV IN MODEL GWF_1            PACKAGE GWF_1           CONNECTED TO MODEL GWF_1            PACKAGE RIV_SYS1         ON UNIT   1018 AT TIME STEP      1, STRESS PERIOD    363
 UBDSV06 SAVING              RIV IN MODEL GWF_1            PACKAGE GWF_1           CONNECTED TO MODEL GWF_1            PACKAGE RIV_SYS2         ON UNIT   1018 AT TIME STEP      1, STRESS PERIOD    363

 HEAD WILL BE SAVED ON UNIT 1017 AT END OF TIME STEP    1, STRESS PERIOD  363


  VOLUME BUDGET FOR ENTIRE MODEL AT END OF TIME STEP    1, STRESS PERIOD 363
  ---------------------------------------------------------------------------------------------------

     CUMULATIVE VOLUME      L**3       RATES FOR THIS TIME STEP      L**3/T          PACKAGE NAME    
     ------------------                 ------------------------                     ----------------

           IN:                                      IN:
           ---                                      ---
              STO-SS =      227438.2850                STO-SS =       3.3914E-05     STORAGE                          
                 DRN =           0.0000                   DRN =           0.0000     DRN_SYS1                         
                 RIV =      421797.5142                   RIV =        1275.8375     RIV_SYS1                         
                 RIV =           0.0000                   RIV =           0.0000     RIV_SYS2                         
                 RCH =           0.0000                   RCH =           0.0000     RCH_MSW                          

            TOTAL IN =      649235.7993              TOTAL IN =        1275.8375

          OUT:                                     OUT:
          ----                                     ----
              STO-SS =           0.0000                STO-SS =           0.0000     STORAGE                          
                 DRN =        8883.9652                   DRN =           9.3219     DRN_SYS1                         
                 RIV =      612141.0272                   RIV =        1226.8798     RIV_SYS1                         
                 RIV =       28212.5084                   RIV =          39.6358     RIV_SYS2                         
                 RCH =           0.0000                   RCH =           0.0000     RCH_MSW                          

           TOTAL OUT =      649237.5008             TOTAL OUT =        1275.8375

            IN - OUT =          -1.7015              IN - OUT =      -1.4460E-06

 PERCENT DISCREPANCY =          -0.00     PERCENT DISCREPANCY =          -0.00




         TIME SUMMARY AT END OF TIME STEP    1 IN STRESS PERIOD  363
                    SECONDS     MINUTES      HOURS       DAYS        YEARS
                    -----------------------------------------------------------
   TIME STEP LENGTH  86400.      1440.0      24.000      1.0000     2.73785E-03
 STRESS PERIOD TIME  86400.      1440.0      24.000      1.0000     2.73785E-03
         TOTAL TIME 3.13632E+07 5.22720E+05  8712.0      363.00     0.99384    


end timestep


start timestep kper="364" kstp="1" mode="normal"

 #Stressperiod Save Options

 BEGIN READING OUTPUT CONTROL FOR STRESS PERIOD 364
      ALL TIME STEPS WILL BE SAVED
      ALL TIME STEPS WILL BE SAVED

 END READING OUTPUT CONTROL FOR STRESS PERIOD 364


 PROCESSING STORAGE PERIOD DATA
 END PROCESSING STORAGE PERIOD DATA


 STRESS PERIOD 364 IS TRANSIENT


 REUSING DRNS FROM LAST STRESS PERIOD

 REUSING RIVS FROM LAST STRESS PERIOD

 REUSING RIVS FROM LAST STRESS PERIOD

 REUSING RCHS FROM LAST STRESS PERIOD
 UBDSV06 SAVING              DRN IN MODEL GWF_1            PACKAGE GWF_1           CONNECTED TO MODEL GWF_1            PACKAGE DRN_SYS1         ON UNIT   1018 AT TIME STEP      1, STRESS PERIOD    364
 UBDSV06 SAVING              RIV IN MODEL GWF_1            PACKAGE GWF_1           CONNECTED TO MODEL GWF_1            PACKAGE RIV_SYS1         ON UNIT   1018 AT TIME STEP      1, STRESS PERIOD    364
 UBDSV06 SAVING              RIV IN MODEL GWF_1            PACKAGE GWF_1           CONNECTED TO MODEL GWF_1            PACKAGE RIV_SYS2         ON UNIT   1018 AT TIME STEP      1, STRESS PERIOD    364

 HEAD WILL BE SAVED ON UNIT 1017 AT END OF TIME STEP    1, STRESS PERIOD  364


  VOLUME BUDGET FOR ENTIRE MODEL AT END OF TIME STEP    1, STRESS PERIOD 364
  ---------------------------------------------------------------------------------------------------

     CUMULATIVE VOLUME      L**3       RATES FOR THIS TIME STEP      L**3/T          PACKAGE NAME    
     ------------------                 ------------------------                     ----------------

           IN:                                      IN:
           ---                                      ---
              STO-SS =      227438.2851                STO-SS =       3.2090E-05     STORAGE                          
                 DRN =           0.0000                   DRN =           0.0000     DRN_SYS1                         
                 RIV =      423073.3517                   RIV =        1275.8375     RIV_SYS1                         
                 RIV =           0.0000                   RIV =           0.0000     RIV_SYS2                         
                 RCH =           0.0000                   RCH =           0.0000     RCH_MSW                          

            TOTAL IN =      650511.6368              TOTAL IN =        1275.8375

          OUT:                                     OUT:
          ----                                     ----
              STO-SS =           0.0000                STO-SS =           0.0000     STORAGE                          
                 DRN =        8893.2871                   DRN =           9.3219     DRN_SYS1                         
                 RIV =      613367.9071                   RIV =        1226.8798     RIV_SYS1                         
                 RIV =       28252.1441                   RIV =          39.6358     RIV_SYS2                         
                 RCH =           0.0000                   RCH =           0.0000     RCH_MSW                          

           TOTAL OUT =      650513.3383             TOTAL OUT =        1275.8375

            IN - OUT =          -1.7015              IN - OUT =      -1.4825E-06

 PERCENT DISCREPANCY =          -0.00     PERCENT DISCREPANCY =          -0.00




         TIME SUMMARY AT END OF TIME STEP    1 IN STRESS PERIOD  364
                    SECONDS     MINUTES      HOURS       DAYS        YEARS
                    -----------------------------------------------------------
   TIME STEP LENGTH  86400.      1440.0      24.000      1.0000     2.73785E-03
 STRESS PERIOD TIME  86400.      1440.0      24.000      1.0000     2.73785E-03
         TOTAL TIME 3.14496E+07 5.24160E+05  8736.0      364.00     0.99658    


end timestep


start timestep kper="365" kstp="1" mode="normal"

 #Stressperiod Save Options

 BEGIN READING OUTPUT CONTROL FOR STRESS PERIOD 365
      ALL TIME STEPS WILL BE SAVED
      ALL TIME STEPS WILL BE SAVED

 END READING OUTPUT CONTROL FOR STRESS PERIOD 365


 PROCESSING STORAGE PERIOD DATA
 END PROCESSING STORAGE PERIOD DATA


 STRESS PERIOD 365 IS TRANSIENT


 REUSING DRNS FROM LAST STRESS PERIOD

 REUSING RIVS FROM LAST STRESS PERIOD

 REUSING RIVS FROM LAST STRESS PERIOD

 REUSING RCHS FROM LAST STRESS PERIOD
 UBDSV06 SAVING              DRN IN MODEL GWF_1            PACKAGE GWF_1           CONNECTED TO MODEL GWF_1            PACKAGE DRN_SYS1         ON UNIT   1018 AT TIME STEP      1, STRESS PERIOD    365
 UBDSV06 SAVING              RIV IN MODEL GWF_1            PACKAGE GWF_1           CONNECTED TO MODEL GWF_1            PACKAGE RIV_SYS1         ON UNIT   1018 AT TIME STEP      1, STRESS PERIOD    365
 UBDSV06 SAVING              RIV IN MODEL GWF_1            PACKAGE GWF_1           CONNECTED TO MODEL GWF_1            PACKAGE RIV_SYS2         ON UNIT   1018 AT TIME STEP      1, STRESS PERIOD    365

 HEAD WILL BE SAVED ON UNIT 1017 AT END OF TIME STEP    1, STRESS PERIOD  365


  VOLUME BUDGET FOR ENTIRE MODEL AT END OF TIME STEP    1, STRESS PERIOD 365
  ---------------------------------------------------------------------------------------------------

     CUMULATIVE VOLUME      L**3       RATES FOR THIS TIME STEP      L**3/T          PACKAGE NAME    
     ------------------                 ------------------------                     ----------------

           IN:                                      IN:
           ---                                      ---
              STO-SS =      227438.2851                STO-SS =       3.0359E-05     STORAGE                          
                 DRN =           0.0000                   DRN =           0.0000     DRN_SYS1                         
                 RIV =      424349.1892                   RIV =        1275.8375     RIV_SYS1                         
                 RIV =           0.0000                   RIV =           0.0000     RIV_SYS2                         
                 RCH =           0.0000                   RCH =           0.0000     RCH_MSW                          

            TOTAL IN =      651787.4743              TOTAL IN =        1275.8375

          OUT:                                     OUT:
          ----                                     ----
              STO-SS =           0.0000                STO-SS =           0.0000     STORAGE                          
                 DRN =        8902.6090                   DRN =           9.3219     DRN_SYS1                         
                 RIV =      614594.7869                   RIV =        1226.8798     RIV_SYS1                         
                 RIV =       28291.7799                   RIV =          39.6358     RIV_SYS2                         
                 RCH =           0.0000                   RCH =           0.0000     RCH_MSW                          

           TOTAL OUT =      651789.1758             TOTAL OUT =        1275.8375

            IN - OUT =          -1.7016              IN - OUT =      -1.5221E-06

 PERCENT DISCREPANCY =          -0.00     PERCENT DISCREPANCY =          -0.00




         TIME SUMMARY AT END OF TIME STEP    1 IN STRESS PERIOD  365
                    SECONDS     MINUTES      HOURS       DAYS        YEARS
                    -----------------------------------------------------------
   TIME STEP LENGTH  86400.      1440.0      24.000      1.0000     2.73785E-03
 STRESS PERIOD TIME  86400.      1440.0      24.000      1.0000     2.73785E-03
         TOTAL TIME 3.15360E+07 5.25600E+05  8760.0      365.00     0.99932    


end timestep

