                                   MODFLOW 6
                U.S. GEOLOGICAL SURVEY MODULAR HYDROLOGIC MODEL
                          GROUNDWATER FLOW MODEL (GWF)
                   VERSION 6.4.0 release candidate 03/04/2022
                               ***DEVELOP MODE***

   MODFLOW 6 compiled Nov 01 2022 14:01:24 with Intel(R) Fortran Intel(R) 64
   Compiler Classic for applications running on Intel(R) 64, Version 2021.2.0
                             Build 20210228_000000

This software is preliminary or provisional and is subject to 
revision. It is being provided to meet the need for timely best 
science. The software has not received final approval by the U.S. 
Geological Survey (USGS). No warranty, expressed or implied, is made 
by the USGS or the U.S. Government as to the functionality of the 
software and related material nor shall the fact of release 
constitute any such warranty. The software is provided on the 
condition that neither the USGS nor the U.S. Government shall be held 
liable for any damages resulting from the authorized or unauthorized 
use of the software.


As a work of the United States Government, this USGS product is 
in the public domain within the United States. You can copy, 
modify, distribute, and perform the work, even for commercial 
purposes, all without asking permission. Additionally, USGS 
waives copyright and related rights in the work worldwide 
through CC0 1.0 Universal Public Domain Dedication 
(https://creativecommons.org/publicdomain/zero/1.0/).

The following GNU Lesser General Public License (LGPL) libraries
are used in this USGS product:

    SPARSKIT version 2.0
      ilut, luson, and qsplit 
      (https://www-users.cse.umn.edu/~saad/software/SPARSKIT/)

    RCM - Reverse Cuthill McKee Ordering
      (https://people.math.sc.edu/Burkardt/f_src/rcm/rcm.html)

    BLAS - Basic Linear Algebra Subprograms Level 1
      (https://people.math.sc.edu/Burkardt/f_src/blas1_d/blas1_d.html)

    SPARSEKIT - Sparse Matrix Utility Package
      amux, dperm, dvperm, rperm, and cperm
      (https://people.sc.fsu.edu/~jburkardt/f77_src/sparsekit/sparsekit.html)

The following BSD-3 License libraries are used in this USGS product:

    Modern Fortran DAG Library
      Copyright (c) 2018, Jacob Williams
      All rights reserved.
      (https://github.com/jacobwilliams/daglib)

MODFLOW 6 compiler options: /Isrc\libmf6core.a.p /Isrc /I..\src
/Isrc\libmf6_external.a.p /MTd /nologo /warn:general /warn:truncated_source
/stand:f08 /Zi /traceback /O2 /fpe:0 /heap-arrays:0 /traceback /fpp
/Qdiag-disable:7416 /Qdiag-disable:7025 /Qdiag-disable:5268
/Fdsrc\libmf6core.a.p\Utilities_compilerversion.F90.pdb
/module:src\libmf6core.a.p
/Fosrc/libmf6core.a.p/Utilities_compilerversion.F90.obj /c

System command used to initiate simulation:
C:\Users\slooten\.conda\envs\imod_coupler\python.exe c:\Users\slooten\.vscode\extensions\ms-python.python-2023.2.0\pythonFiles\lib\python\debugpy\launcher/../..\debugpy --connect 127.0.0.1:53922 --configure-qt none --adapter-access-token c8f77fa1e900147f6e187567a84add808062fc26c153f8d2a0f85cc3af6f8363 c:\Users\slooten\.vscode\extensions\ms-python.python-2023.2.0\pythonFiles\testlauncher.py d:\dev\imod_coupler pytest --rootdir d:\dev\imod_coupler --override-ini junit_family=xunit1 --junit-xml=C:\Users\slooten\AppData\Local\Temp\tmp-287845xLKHPVDq2AH.xml --capture no ./tests/test_run_tmodel.py::test_run_tmodel

MODFLOW was compiled using uniform precision.

Real Variables
  KIND: 8
  TINY (smallest non-zero value):    2.225074-308
  HUGE (largest value):    1.797693+308
  PRECISION: 15
  BIT SIZE: 64

Integer Variables
  KIND: 4
  HUGE (largest value): 2147483647
  BIT SIZE: 32

Long Integer Variables
  KIND: 8
  HUGE (largest value): 9223372036854775807
  BIT SIZE: 64

Logical Variables
  KIND: 4
  BIT SIZE: 32
 

 OPENED .\GWF_1\MODELINPUT\T-MODEL-D.DIS6
 FILE TYPE:DIS6                   UNIT 1005   STATUS:OLD                 
 FORMAT:FORMATTED              ACCESS:SEQUENTIAL          
 ACTION:READ                


 OPENED .\GWF_1\MODELINPUT\T-MODEL-D.IC6
 FILE TYPE:IC6                    UNIT 1006   STATUS:OLD                 
 FORMAT:FORMATTED              ACCESS:SEQUENTIAL          
 ACTION:READ                


 OPENED .\GWF_1\MODELINPUT\T-MODEL-D.NPF6
 FILE TYPE:NPF6                   UNIT 1007   STATUS:OLD                 
 FORMAT:FORMATTED              ACCESS:SEQUENTIAL          
 ACTION:READ                


 OPENED .\GWF_1\MODELINPUT\T-MODEL-D.OC6
 FILE TYPE:OC6                    UNIT 1008   STATUS:OLD                 
 FORMAT:FORMATTED              ACCESS:SEQUENTIAL          
 ACTION:READ                


 OPENED .\GWF_1\MODELINPUT\T-MODEL-D.STO6
 FILE TYPE:STO6                   UNIT 1009   STATUS:OLD                 
 FORMAT:FORMATTED              ACCESS:SEQUENTIAL          
 ACTION:READ                


 OPENED .\GWF_1\MODELINPUT\T-MODEL-D_SYS1.DRN6
 FILE TYPE:DRN6                   UNIT 1010   STATUS:OLD                 
 FORMAT:FORMATTED              ACCESS:SEQUENTIAL          
 ACTION:READ                


 OPENED .\GWF_1\MODELINPUT\T-MODEL-D_SYS1.RIV6
 FILE TYPE:RIV6                   UNIT 1011   STATUS:OLD                 
 FORMAT:FORMATTED              ACCESS:SEQUENTIAL          
 ACTION:READ                


 OPENED .\GWF_1\MODELINPUT\T-MODEL-D_SYS2.RIV6
 FILE TYPE:RIV6                   UNIT 1012   STATUS:OLD                 
 FORMAT:FORMATTED              ACCESS:SEQUENTIAL          
 ACTION:READ                


 OPENED .\GWF_1\MODELINPUT\MSW.RCH6
 FILE TYPE:RCH6                   UNIT 1013   STATUS:OLD                 
 FORMAT:FORMATTED              ACCESS:SEQUENTIAL          
 ACTION:READ                


 OPENED .\GWF_1\MODELINPUT\RIV_CORRECTION.WEL6
 FILE TYPE:WEL6                   UNIT 1014   STATUS:OLD                 
 FORMAT:FORMATTED              ACCESS:SEQUENTIAL          
 ACTION:READ                


 DIS -- STRUCTURED GRID DISCRETIZATION PACKAGE, VERSION 2 : 3/27/2014 - INPUT READ FROM UNIT 1005

 Loading input for GWF_1/DIS
 # DIS6 File Generated by iMOD [V5_4 X64 Optimized]
   XORIGIN = .000000000000000
   YORIGIN = .000000000000000
   ANGROT = .000000000000000
 #Model Dimensions
   NLAY = 1
   NROW = 11
   NCOL = 10
 #Cell Sizes
   DELR = 100.0000000000000
   DELC = 100.0000000000000
 #Vertical Configuration
   TOP = .000000000000000
   BOTM = -10.00000000000000
 #Boundary Settings
   IDOMAIN = variable 3D integer array ranging from 1 to 2
 Loading input complete...


 NPF -- NODE PROPERTY FLOW PACKAGE, VERSION 1, 3/30/2015 INPUT READ FROM UNIT 1007

 Loading input for GWF_1/NPF
 # NPF6 File Generated by iMOD [V5_4 X64 Optimized]
 #General Options
 #Geology Options
   ICELLTYPE = 0
   K = 100.0000000000000
   K33 = 1.000000000000000
 Loading input complete...

 Setting Discretization Options
    MODEL LENGTH UNIT [0=UND, 1=FEET, 2=METERS, 3=CENTIMETERS] SET AS 2
    XORIGIN = .000000000000000
    YORIGIN = .000000000000000
    ANGROT = .000000000000000
 End Setting Discretization Options

 Setting Discretization Dimensions
    NLAY = 1
    NROW = 11
    NCOL = 10
 End Setting Discretization Dimensions

 Setting Discretization Griddata
    DELR set from input file
    DELC set from input file
    TOP set from input file
    BOTM set from input file
    IDOMAIN set from input file
 End Setting Discretization Griddata

 Setting NPF Options
    ALTERNATIVE CELL AVERAGING [1=LOGARITHMIC, 2=AMT-LMK, 3=AMT-HMK] SET TO: 3
 End Setting NPF Options

 THE FOLLOWING REWET SETTINGS WILL BE USED.
      WETFCT =     1.00000    
      IWETIT = 1
      IHDWET = 0
 K22 not provided.  Setting K22 = K.
 Setting NPF Griddata
    ICELLTYPE set from input file
    K set from input file
    K33 set from input file
 End Setting NPF Griddata


 WEL   -- WEL PACKAGE, VERSION 8, 2/22/2014 INPUT READ FROM UNIT 1014

 PROCESSING WEL OPTIONS
 END OF WEL OPTIONS

 PROCESSING WEL DIMENSIONS
    MAXBOUND =      55
 END OF WEL DIMENSIONS

 DRN   -- DRN PACKAGE, VERSION 8, 2/22/2014 INPUT READ FROM UNIT 1010
 # DRN6 File Generated by iMOD [V5_4 X64 Optimized]
 #General Options

 PROCESSING DRN OPTIONS
    FLOWS WILL BE SAVED TO BUDGET FILE SPECIFIED IN OUTPUT CONTROL
 END OF DRN OPTIONS
 #General Dimensions

 PROCESSING DRN DIMENSIONS
    MAXBOUND =       2
 END OF DRN DIMENSIONS

 RIV   -- RIV PACKAGE, VERSION 8, 2/22/2014 INPUT READ FROM UNIT 1011
 # RIV6 File Generated by iMOD [V5_4 X64 Optimized]
 #General Options

 PROCESSING RIV OPTIONS
    FLOWS WILL BE SAVED TO BUDGET FILE SPECIFIED IN OUTPUT CONTROL
 END OF RIV OPTIONS
 #General Dimensions

 PROCESSING RIV DIMENSIONS
    MAXBOUND =      55
 END OF RIV DIMENSIONS

 RIV   -- RIV PACKAGE, VERSION 8, 2/22/2014 INPUT READ FROM UNIT 1012
 # RIV6 File Generated by iMOD [V5_4 X64 Optimized]
 #General Options

 PROCESSING RIV OPTIONS
    FLOWS WILL BE SAVED TO BUDGET FILE SPECIFIED IN OUTPUT CONTROL
 END OF RIV OPTIONS
 #General Dimensions

 PROCESSING RIV DIMENSIONS
    MAXBOUND =       3
 END OF RIV DIMENSIONS

 RCH   -- RCH PACKAGE, VERSION 8, 2/22/2014 INPUT READ FROM UNIT 1013
 # RCH6 File Generated by iMOD [V5_4 X64 Optimized]
 #General Options

 PROCESSING RCH OPTIONS
 END OF RCH OPTIONS
 #General Dimensions

 PROCESSING RCH DIMENSIONS
    MAXBOUND =     110
 END OF RCH DIMENSIONS

 IC -- INITIAL CONDITIONS PACKAGE, VERSION 8, 3/28/2015 INPUT READ FROM UNIT 1006
 # IC6 File Generated by iMOD [V5_4 X64 Optimized]
 #General Options
 PROCESSING IC OPTIONS
 END OF IC OPTIONS
 #Initial Head Data
 PROCESSING GRIDDATA

     INITIAL HEAD =   10.00000     FOR LAYER 1
 END PROCESSING GRIDDATA

 STO -- STORAGE PACKAGE, VERSION 1, 5/19/2014 INPUT READ FROM UNIT 1009


 # STO6 File Generated by iMOD [V5_4 X64 Optimized]
 #General Options
 PROCESSING STORAGE OPTIONS
    STORAGECOEFFICIENT OPTION:
 Read storage coefficient rather than specific storage
 END OF STORAGE OPTIONS
 #Geology Options
 PROCESSING GRIDDATA

                 ICONVERT = 0 FOR LAYER 1

         SPECIFIC STORAGE =  0.1500000     FOR LAYER 1
 END PROCESSING GRIDDATA
    BINARY GRID INFORMATION WILL BE WRITTEN TO:
      UNIT NUMBER: 1017
      FILE NAME: C:\Users\slooten\AppData\Local\Temp\pytest-of-slooten\pytest-43\test_run_tmodel0\develop\Modflow6\GWF_1\MODELINPUT\T-MODEL-D.DIS6.grb

 OPENED C:\Users\slooten\AppData\Local\Temp\pytest-of-slooten\pytest-43\test_run_tmodel0\develop\Modflow6\GWF_1\MODELINPUT\T-MODEL-D.DIS6.grb
 FILE TYPE:DATA(BINARY)   UNIT 1017   STATUS:REPLACE             
 FORMAT:UNFORMATTED            ACCESS:STREAM              
 ACTION:READWRITE           

      THE LAST TIME STEP WILL BE PRINTED
      THE LAST TIME STEP WILL BE PRINTED
 # OC6 File Generated by iMOD [V5_4 X64 Optimized]
 #General Options

 PROCESSING OC OPTIONS

    HEAD INFORMATION WILL BE WRITTEN TO:
      UNIT NUMBER: 1018
      FILE NAME: .\GWF_1\MODELOUTPUT\HEAD\HEAD.HED

 OPENED .\GWF_1\MODELOUTPUT\HEAD\HEAD.HED
 FILE TYPE:DATA(BINARY)   UNIT 1018   STATUS:REPLACE             
 FORMAT:UNFORMATTED            ACCESS:STREAM              
 ACTION:READWRITE           

    BUDGET INFORMATION WILL BE WRITTEN TO:
      UNIT NUMBER: 1019
      FILE NAME: .\GWF_1\MODELOUTPUT\BUDGET\BUDGET.CBC

 OPENED .\GWF_1\MODELOUTPUT\BUDGET\BUDGET.CBC
 FILE TYPE:DATA(BINARY)   UNIT 1019   STATUS:REPLACE             
 FORMAT:UNFORMATTED            ACCESS:STREAM              
 ACTION:READWRITE           

 END OF OC OPTIONS

start timestep kper="1" kstp="1" mode="normal"

 #Stressperiod Save Options

 BEGIN READING OUTPUT CONTROL FOR STRESS PERIOD 1
      ALL TIME STEPS WILL BE SAVED
      ALL TIME STEPS WILL BE SAVED

 END READING OUTPUT CONTROL FOR STRESS PERIOD 1
 #Time Storage Options


 PROCESSING STORAGE PERIOD DATA
 END PROCESSING STORAGE PERIOD DATA


 STRESS PERIOD 1 IS TRANSIENT


 OPENED .\GWF_1\MODELINPUT\DRN6\SYS1\DRN_T1.ARR
 FILE TYPE:OPEN/CLOSE   UNIT 1022   STATUS:OLD                 
 FORMAT:FORMATTED              ACCESS:SEQUENTIAL          
 ACTION:READ                


 OPENED .\GWF_1\MODELINPUT\ISG6\SYS1\ISG_T1.ARR
 FILE TYPE:OPEN/CLOSE   UNIT 1023   STATUS:OLD                 
 FORMAT:FORMATTED              ACCESS:SEQUENTIAL          
 ACTION:READ                


 OPENED .\GWF_1\MODELINPUT\RIV6\SYS1\RIV_T1.ARR
 FILE TYPE:OPEN/CLOSE   UNIT 1024   STATUS:OLD                 
 FORMAT:FORMATTED              ACCESS:SEQUENTIAL          
 ACTION:READ                

 UBDSV06 SAVING              DRN IN MODEL GWF_1            PACKAGE GWF_1           CONNECTED TO MODEL GWF_1            PACKAGE DRN_SYS1         ON UNIT   1019 AT TIME STEP      1, STRESS PERIOD      1
 UBDSV06 SAVING              RIV IN MODEL GWF_1            PACKAGE GWF_1           CONNECTED TO MODEL GWF_1            PACKAGE RIV_SYS1         ON UNIT   1019 AT TIME STEP      1, STRESS PERIOD      1
 UBDSV06 SAVING              RIV IN MODEL GWF_1            PACKAGE GWF_1           CONNECTED TO MODEL GWF_1            PACKAGE RIV_SYS2         ON UNIT   1019 AT TIME STEP      1, STRESS PERIOD      1

 HEAD WILL BE SAVED ON UNIT 1018 AT END OF TIME STEP    1, STRESS PERIOD    1


  VOLUME BUDGET FOR ENTIRE MODEL AT END OF TIME STEP    1, STRESS PERIOD   1
  ---------------------------------------------------------------------------------------------------

     CUMULATIVE VOLUME      L**3       RATES FOR THIS TIME STEP      L**3/T          PACKAGE NAME    
     ------------------                 ------------------------                     ----------------

           IN:                                      IN:
           ---                                      ---
              STO-SS = 18284802767.2583                STO-SS = 18284802767.2583     STORAGE                          
                 WEL =           0.0000                   WEL =           0.0000     RIV_CORR                         
                 DRN =           0.0000                   DRN =           0.0000     DRN_SYS1                         
                 RIV =       82853.0411                   RIV =       82853.0411     RIV_SYS1                         
                 RIV =         600.0000                   RIV =         600.0000     RIV_SYS2                         
                 RCH =           0.0000                   RCH =           0.0000     RCH_MSW                          

            TOTAL IN = 18284886220.2994              TOTAL IN = 18284886220.2994

          OUT:                                     OUT:
          ----                                     ----
              STO-SS =           0.0000                STO-SS =           0.0000     STORAGE                          
                 WEL = 18284884231.8928                   WEL = 18284884231.8928     RIV_CORR                         
                 DRN =           0.0000                   DRN =           0.0000     DRN_SYS1                         
                 RIV =           0.0000                   RIV =           0.0000     RIV_SYS1                         
                 RIV =           0.0000                   RIV =           0.0000     RIV_SYS2                         
                 RCH =        1988.4089                   RCH =        1988.4089     RCH_MSW                          

           TOTAL OUT = 18284886220.3017             TOTAL OUT = 18284886220.3017

            IN - OUT =      -2.3499E-03              IN - OUT =      -2.3499E-03

 PERCENT DISCREPANCY =          -0.00     PERCENT DISCREPANCY =          -0.00




         TIME SUMMARY AT END OF TIME STEP    1 IN STRESS PERIOD    1
                    SECONDS     MINUTES      HOURS       DAYS        YEARS
                    -----------------------------------------------------------
   TIME STEP LENGTH  86400.      1440.0      24.000      1.0000     2.73785E-03
 STRESS PERIOD TIME  86400.      1440.0      24.000      1.0000     2.73785E-03
         TOTAL TIME  86400.      1440.0      24.000      1.0000     2.73785E-03


end timestep


start timestep kper="2" kstp="1" mode="normal"

 #Stressperiod Save Options

 BEGIN READING OUTPUT CONTROL FOR STRESS PERIOD 2
      ALL TIME STEPS WILL BE SAVED
      ALL TIME STEPS WILL BE SAVED

 END READING OUTPUT CONTROL FOR STRESS PERIOD 2


 PROCESSING STORAGE PERIOD DATA
 END PROCESSING STORAGE PERIOD DATA


 STRESS PERIOD 2 IS TRANSIENT


 REUSING WELS FROM LAST STRESS PERIOD

 REUSING DRNS FROM LAST STRESS PERIOD

 REUSING RIVS FROM LAST STRESS PERIOD

 REUSING RIVS FROM LAST STRESS PERIOD

 REUSING RCHS FROM LAST STRESS PERIOD
 UBDSV06 SAVING              DRN IN MODEL GWF_1            PACKAGE GWF_1           CONNECTED TO MODEL GWF_1            PACKAGE DRN_SYS1         ON UNIT   1019 AT TIME STEP      1, STRESS PERIOD      2
 UBDSV06 SAVING              RIV IN MODEL GWF_1            PACKAGE GWF_1           CONNECTED TO MODEL GWF_1            PACKAGE RIV_SYS1         ON UNIT   1019 AT TIME STEP      1, STRESS PERIOD      2
 UBDSV06 SAVING              RIV IN MODEL GWF_1            PACKAGE GWF_1           CONNECTED TO MODEL GWF_1            PACKAGE RIV_SYS2         ON UNIT   1019 AT TIME STEP      1, STRESS PERIOD      2

 HEAD WILL BE SAVED ON UNIT 1018 AT END OF TIME STEP    1, STRESS PERIOD    2


  VOLUME BUDGET FOR ENTIRE MODEL AT END OF TIME STEP    1, STRESS PERIOD   2
  ---------------------------------------------------------------------------------------------------

     CUMULATIVE VOLUME      L**3       RATES FOR THIS TIME STEP      L**3/T          PACKAGE NAME    
     ------------------                 ------------------------                     ----------------

           IN:                                      IN:
           ---                                      ---
              STO-SS =129639638095.8840                STO-SS =111354835328.6258     STORAGE                          
                 WEL =           0.0000                   WEL =           0.0000     RIV_CORR                         
                 DRN =           0.0000                   DRN =           0.0000     DRN_SYS1                         
                 RIV =      121325.5812                   RIV =       38472.5401     RIV_SYS1                         
                 RIV =        1200.0000                   RIV =         600.0000     RIV_SYS2                         
                 RCH =    26849960.9375                   RCH =    26849960.9375     RCH_MSW                          

            TOTAL IN =129666610582.4028              TOTAL IN =111381724362.1034

          OUT:                                     OUT:
          ----                                     ----
              STO-SS =           0.0000                STO-SS =           0.0000     STORAGE                          
                 WEL =129666608593.9962                   WEL =111381724362.1034     RIV_CORR                         
                 DRN =           0.0000                   DRN =           0.0000     DRN_SYS1                         
                 RIV =           0.0000                   RIV =           0.0000     RIV_SYS1                         
                 RIV =           0.0000                   RIV =           0.0000     RIV_SYS2                         
                 RCH =        1988.4089                   RCH =           0.0000     RCH_MSW                          

           TOTAL OUT =129666610582.4051             TOTAL OUT =111381724362.1034

            IN - OUT =      -2.3499E-03              IN - OUT =           0.0000

 PERCENT DISCREPANCY =          -0.00     PERCENT DISCREPANCY =           0.00




         TIME SUMMARY AT END OF TIME STEP    1 IN STRESS PERIOD    2
                    SECONDS     MINUTES      HOURS       DAYS        YEARS
                    -----------------------------------------------------------
   TIME STEP LENGTH  86400.      1440.0      24.000      1.0000     2.73785E-03
 STRESS PERIOD TIME  86400.      1440.0      24.000      1.0000     2.73785E-03
         TOTAL TIME 1.72800E+05  2880.0      48.000      2.0000     5.47570E-03


end timestep


start timestep kper="3" kstp="1" mode="normal"

 #Stressperiod Save Options

 BEGIN READING OUTPUT CONTROL FOR STRESS PERIOD 3
      ALL TIME STEPS WILL BE SAVED
      ALL TIME STEPS WILL BE SAVED

 END READING OUTPUT CONTROL FOR STRESS PERIOD 3


 PROCESSING STORAGE PERIOD DATA
 END PROCESSING STORAGE PERIOD DATA


 STRESS PERIOD 3 IS TRANSIENT


 REUSING WELS FROM LAST STRESS PERIOD

 REUSING DRNS FROM LAST STRESS PERIOD

 REUSING RIVS FROM LAST STRESS PERIOD

 REUSING RIVS FROM LAST STRESS PERIOD

 REUSING RCHS FROM LAST STRESS PERIOD
 UBDSV06 SAVING              DRN IN MODEL GWF_1            PACKAGE GWF_1           CONNECTED TO MODEL GWF_1            PACKAGE DRN_SYS1         ON UNIT   1019 AT TIME STEP      1, STRESS PERIOD      3
 UBDSV06 SAVING              RIV IN MODEL GWF_1            PACKAGE GWF_1           CONNECTED TO MODEL GWF_1            PACKAGE RIV_SYS1         ON UNIT   1019 AT TIME STEP      1, STRESS PERIOD      3
 UBDSV06 SAVING              RIV IN MODEL GWF_1            PACKAGE GWF_1           CONNECTED TO MODEL GWF_1            PACKAGE RIV_SYS2         ON UNIT   1019 AT TIME STEP      1, STRESS PERIOD      3

 HEAD WILL BE SAVED ON UNIT 1018 AT END OF TIME STEP    1, STRESS PERIOD    3


  VOLUME BUDGET FOR ENTIRE MODEL AT END OF TIME STEP    1, STRESS PERIOD   3
  ---------------------------------------------------------------------------------------------------

     CUMULATIVE VOLUME      L**3       RATES FOR THIS TIME STEP      L**3/T          PACKAGE NAME    
     ------------------                 ------------------------                     ----------------

           IN:                                      IN:
           ---                                      ---
              STO-SS =240751813743.3782                STO-SS =111112175647.4941     STORAGE                          
                 WEL =           0.0000                   WEL =           0.0000     RIV_CORR                         
                 DRN =           0.0000                   DRN =           0.0000     DRN_SYS1                         
                 RIV =      159752.5215                   RIV =       38426.9403     RIV_SYS1                         
                 RIV =        1800.0000                   RIV =         600.0000     RIV_SYS2                         
                 RCH =    26850454.6070                   RCH =         493.6695     RCH_MSW                          

            TOTAL IN =240778825750.5067              TOTAL IN =111112215168.1040

          OUT:                                     OUT:
          ----                                     ----
              STO-SS =           0.0000                STO-SS =           0.0000     STORAGE                          
                 WEL =240778823760.8784                   WEL =111112215166.8821     RIV_CORR                         
                 DRN =           0.0000                   DRN =           0.0000     DRN_SYS1                         
                 RIV =           0.0000                   RIV =           0.0000     RIV_SYS1                         
                 RIV =           0.0000                   RIV =           0.0000     RIV_SYS2                         
                 RCH =        1989.6308                   RCH =           1.2219     RCH_MSW                          

           TOTAL OUT =240778825750.5092             TOTAL OUT =111112215168.1040

            IN - OUT =      -2.4414E-03              IN - OUT =      -6.1035E-05

 PERCENT DISCREPANCY =          -0.00     PERCENT DISCREPANCY =          -0.00




         TIME SUMMARY AT END OF TIME STEP    1 IN STRESS PERIOD    3
                    SECONDS     MINUTES      HOURS       DAYS        YEARS
                    -----------------------------------------------------------
   TIME STEP LENGTH  86400.      1440.0      24.000      1.0000     2.73785E-03
 STRESS PERIOD TIME  86400.      1440.0      24.000      1.0000     2.73785E-03
         TOTAL TIME 2.59200E+05  4320.0      72.000      3.0000     8.21355E-03


end timestep


start timestep kper="4" kstp="1" mode="normal"

 #Stressperiod Save Options

 BEGIN READING OUTPUT CONTROL FOR STRESS PERIOD 4
      ALL TIME STEPS WILL BE SAVED
      ALL TIME STEPS WILL BE SAVED

 END READING OUTPUT CONTROL FOR STRESS PERIOD 4


 PROCESSING STORAGE PERIOD DATA
 END PROCESSING STORAGE PERIOD DATA


 STRESS PERIOD 4 IS TRANSIENT


 REUSING WELS FROM LAST STRESS PERIOD

 REUSING DRNS FROM LAST STRESS PERIOD

 REUSING RIVS FROM LAST STRESS PERIOD

 REUSING RIVS FROM LAST STRESS PERIOD

 REUSING RCHS FROM LAST STRESS PERIOD
 UBDSV06 SAVING              DRN IN MODEL GWF_1            PACKAGE GWF_1           CONNECTED TO MODEL GWF_1            PACKAGE DRN_SYS1         ON UNIT   1019 AT TIME STEP      1, STRESS PERIOD      4
 UBDSV06 SAVING              RIV IN MODEL GWF_1            PACKAGE GWF_1           CONNECTED TO MODEL GWF_1            PACKAGE RIV_SYS1         ON UNIT   1019 AT TIME STEP      1, STRESS PERIOD      4
 UBDSV06 SAVING              RIV IN MODEL GWF_1            PACKAGE GWF_1           CONNECTED TO MODEL GWF_1            PACKAGE RIV_SYS2         ON UNIT   1019 AT TIME STEP      1, STRESS PERIOD      4

 HEAD WILL BE SAVED ON UNIT 1018 AT END OF TIME STEP    1, STRESS PERIOD    4


  VOLUME BUDGET FOR ENTIRE MODEL AT END OF TIME STEP    1, STRESS PERIOD   4
  ---------------------------------------------------------------------------------------------------

     CUMULATIVE VOLUME      L**3       RATES FOR THIS TIME STEP      L**3/T          PACKAGE NAME    
     ------------------                 ------------------------                     ----------------

           IN:                                      IN:
           ---                                      ---
              STO-SS =351870750771.3270                STO-SS =111118937027.9488     STORAGE                          
                 WEL =           0.0000                   WEL =           0.0000     RIV_CORR                         
                 DRN =           0.0000                   DRN =           0.0000     DRN_SYS1                         
                 RIV =      198180.6014                   RIV =       38428.0799     RIV_SYS1                         
                 RIV =        2400.0000                   RIV =         600.0000     RIV_SYS2                         
                 RCH =    26850455.3111                   RCH =           0.7041     RCH_MSW                          

            TOTAL IN =351897801807.2395              TOTAL IN =111118976056.7328

          OUT:                                     OUT:
          ----                                     ----
              STO-SS =           0.0000                STO-SS =           0.0000     STORAGE                          
                 WEL =351897799815.4109                   WEL =111118976054.5325     RIV_CORR                         
                 DRN =           0.0000                   DRN =           0.0000     DRN_SYS1                         
                 RIV =           0.0000                   RIV =           0.0000     RIV_SYS1                         
                 RIV =           0.0000                   RIV =           0.0000     RIV_SYS2                         
                 RCH =        1991.8319                   RCH =           2.2011     RCH_MSW                          

           TOTAL OUT =351897801807.2428             TOTAL OUT =111118976056.7336

            IN - OUT =      -3.2959E-03              IN - OUT =      -8.0872E-04

 PERCENT DISCREPANCY =          -0.00     PERCENT DISCREPANCY =          -0.00




         TIME SUMMARY AT END OF TIME STEP    1 IN STRESS PERIOD    4
                    SECONDS     MINUTES      HOURS       DAYS        YEARS
                    -----------------------------------------------------------
   TIME STEP LENGTH  86400.      1440.0      24.000      1.0000     2.73785E-03
 STRESS PERIOD TIME  86400.      1440.0      24.000      1.0000     2.73785E-03
         TOTAL TIME 3.45600E+05  5760.0      96.000      4.0000     1.09514E-02


end timestep


start timestep kper="5" kstp="1" mode="normal"

 #Stressperiod Save Options

 BEGIN READING OUTPUT CONTROL FOR STRESS PERIOD 5
      ALL TIME STEPS WILL BE SAVED
      ALL TIME STEPS WILL BE SAVED

 END READING OUTPUT CONTROL FOR STRESS PERIOD 5


 PROCESSING STORAGE PERIOD DATA
 END PROCESSING STORAGE PERIOD DATA


 STRESS PERIOD 5 IS TRANSIENT


 REUSING WELS FROM LAST STRESS PERIOD

 REUSING DRNS FROM LAST STRESS PERIOD

 REUSING RIVS FROM LAST STRESS PERIOD

 REUSING RIVS FROM LAST STRESS PERIOD

 REUSING RCHS FROM LAST STRESS PERIOD
 UBDSV06 SAVING              DRN IN MODEL GWF_1            PACKAGE GWF_1           CONNECTED TO MODEL GWF_1            PACKAGE DRN_SYS1         ON UNIT   1019 AT TIME STEP      1, STRESS PERIOD      5
 UBDSV06 SAVING              RIV IN MODEL GWF_1            PACKAGE GWF_1           CONNECTED TO MODEL GWF_1            PACKAGE RIV_SYS1         ON UNIT   1019 AT TIME STEP      1, STRESS PERIOD      5
 UBDSV06 SAVING              RIV IN MODEL GWF_1            PACKAGE GWF_1           CONNECTED TO MODEL GWF_1            PACKAGE RIV_SYS2         ON UNIT   1019 AT TIME STEP      1, STRESS PERIOD      5

 HEAD WILL BE SAVED ON UNIT 1018 AT END OF TIME STEP    1, STRESS PERIOD    5


  VOLUME BUDGET FOR ENTIRE MODEL AT END OF TIME STEP    1, STRESS PERIOD   5
  ---------------------------------------------------------------------------------------------------

     CUMULATIVE VOLUME      L**3       RATES FOR THIS TIME STEP      L**3/T          PACKAGE NAME    
     ------------------                 ------------------------                     ----------------

           IN:                                      IN:
           ---                                      ---
              STO-SS =462987042751.1498                STO-SS =111116291979.8228     STORAGE                          
                 WEL =           0.0000                   WEL =           0.0000     RIV_CORR                         
                 DRN =           0.0000                   DRN =           0.0000     DRN_SYS1                         
                 RIV =      236608.2261                   RIV =       38427.6247     RIV_SYS1                         
                 RIV =        3000.0000                   RIV =         600.0000     RIV_SYS2                         
                 RCH =    26850456.5354                   RCH =           1.2243     RCH_MSW                          

            TOTAL IN =463014132815.9113              TOTAL IN =111116331008.6718

          OUT:                                     OUT:
          ----                                     ----
              STO-SS =           0.0000                STO-SS =           0.0000     STORAGE                          
                 WEL =463014130824.0839                   WEL =111116331008.6729     RIV_CORR                         
                 DRN =           0.0000                   DRN =           0.0000     DRN_SYS1                         
                 RIV =           0.0000                   RIV =           0.0000     RIV_SYS1                         
                 RIV =           0.0000                   RIV =           0.0000     RIV_SYS2                         
                 RCH =        1991.8319                   RCH =           0.0000     RCH_MSW                          

           TOTAL OUT =463014132815.9158             TOTAL OUT =111116331008.6729

            IN - OUT =      -4.4556E-03              IN - OUT =      -1.1139E-03

 PERCENT DISCREPANCY =          -0.00     PERCENT DISCREPANCY =          -0.00




         TIME SUMMARY AT END OF TIME STEP    1 IN STRESS PERIOD    5
                    SECONDS     MINUTES      HOURS       DAYS        YEARS
                    -----------------------------------------------------------
   TIME STEP LENGTH  86400.      1440.0      24.000      1.0000     2.73785E-03
 STRESS PERIOD TIME  86400.      1440.0      24.000      1.0000     2.73785E-03
         TOTAL TIME 4.32000E+05  7200.0      120.00      5.0000     1.36893E-02


end timestep


start timestep kper="6" kstp="1" mode="normal"

 #Stressperiod Save Options

 BEGIN READING OUTPUT CONTROL FOR STRESS PERIOD 6
      ALL TIME STEPS WILL BE SAVED
      ALL TIME STEPS WILL BE SAVED

 END READING OUTPUT CONTROL FOR STRESS PERIOD 6


 PROCESSING STORAGE PERIOD DATA
 END PROCESSING STORAGE PERIOD DATA


 STRESS PERIOD 6 IS TRANSIENT


 REUSING WELS FROM LAST STRESS PERIOD

 REUSING DRNS FROM LAST STRESS PERIOD

 REUSING RIVS FROM LAST STRESS PERIOD

 REUSING RIVS FROM LAST STRESS PERIOD

 REUSING RCHS FROM LAST STRESS PERIOD
 UBDSV06 SAVING              DRN IN MODEL GWF_1            PACKAGE GWF_1           CONNECTED TO MODEL GWF_1            PACKAGE DRN_SYS1         ON UNIT   1019 AT TIME STEP      1, STRESS PERIOD      6
 UBDSV06 SAVING              RIV IN MODEL GWF_1            PACKAGE GWF_1           CONNECTED TO MODEL GWF_1            PACKAGE RIV_SYS1         ON UNIT   1019 AT TIME STEP      1, STRESS PERIOD      6
 UBDSV06 SAVING              RIV IN MODEL GWF_1            PACKAGE GWF_1           CONNECTED TO MODEL GWF_1            PACKAGE RIV_SYS2         ON UNIT   1019 AT TIME STEP      1, STRESS PERIOD      6

 HEAD WILL BE SAVED ON UNIT 1018 AT END OF TIME STEP    1, STRESS PERIOD    6


  VOLUME BUDGET FOR ENTIRE MODEL AT END OF TIME STEP    1, STRESS PERIOD   6
  ---------------------------------------------------------------------------------------------------

     CUMULATIVE VOLUME      L**3       RATES FOR THIS TIME STEP      L**3/T          PACKAGE NAME    
     ------------------                 ------------------------                     ----------------

           IN:                                      IN:
           ---                                      ---
              STO-SS =574112460859.8430                STO-SS =111125418108.6932     STORAGE                          
                 WEL =           0.0000                   WEL =           0.0000     RIV_CORR                         
                 DRN =           0.0000                   DRN =           0.0000     DRN_SYS1                         
                 RIV =      275037.4055                   RIV =       38429.1794     RIV_SYS1                         
                 RIV =        3600.0000                   RIV =         600.0000     RIV_SYS2                         
                 RCH =    26850456.5354                   RCH =           0.0000     RCH_MSW                          

            TOTAL IN =574139589953.7839              TOTAL IN =111125457137.8726

          OUT:                                     OUT:
          ----                                     ----
              STO-SS =           0.0000                STO-SS =           0.0000     STORAGE                          
                 WEL =574139587960.5328                   WEL =111125457136.4489     RIV_CORR                         
                 DRN =           0.0000                   DRN =           0.0000     DRN_SYS1                         
                 RIV =           0.0000                   RIV =           0.0000     RIV_SYS1                         
                 RIV =           0.0000                   RIV =           0.0000     RIV_SYS2                         
                 RCH =        1993.2570                   RCH =           1.4251     RCH_MSW                          

           TOTAL OUT =574139589953.7898             TOTAL OUT =111125457137.8740

            IN - OUT =      -5.8594E-03              IN - OUT =      -1.4191E-03

 PERCENT DISCREPANCY =          -0.00     PERCENT DISCREPANCY =          -0.00




         TIME SUMMARY AT END OF TIME STEP    1 IN STRESS PERIOD    6
                    SECONDS     MINUTES      HOURS       DAYS        YEARS
                    -----------------------------------------------------------
   TIME STEP LENGTH  86400.      1440.0      24.000      1.0000     2.73785E-03
 STRESS PERIOD TIME  86400.      1440.0      24.000      1.0000     2.73785E-03
         TOTAL TIME 5.18400E+05  8640.0      144.00      6.0000     1.64271E-02


end timestep


start timestep kper="7" kstp="1" mode="normal"

 #Stressperiod Save Options

 BEGIN READING OUTPUT CONTROL FOR STRESS PERIOD 7
      ALL TIME STEPS WILL BE SAVED
      ALL TIME STEPS WILL BE SAVED

 END READING OUTPUT CONTROL FOR STRESS PERIOD 7


 PROCESSING STORAGE PERIOD DATA
 END PROCESSING STORAGE PERIOD DATA


 STRESS PERIOD 7 IS TRANSIENT


 REUSING WELS FROM LAST STRESS PERIOD

 REUSING DRNS FROM LAST STRESS PERIOD

 REUSING RIVS FROM LAST STRESS PERIOD

 REUSING RIVS FROM LAST STRESS PERIOD

 REUSING RCHS FROM LAST STRESS PERIOD
 UBDSV06 SAVING              DRN IN MODEL GWF_1            PACKAGE GWF_1           CONNECTED TO MODEL GWF_1            PACKAGE DRN_SYS1         ON UNIT   1019 AT TIME STEP      1, STRESS PERIOD      7
 UBDSV06 SAVING              RIV IN MODEL GWF_1            PACKAGE GWF_1           CONNECTED TO MODEL GWF_1            PACKAGE RIV_SYS1         ON UNIT   1019 AT TIME STEP      1, STRESS PERIOD      7
 UBDSV06 SAVING              RIV IN MODEL GWF_1            PACKAGE GWF_1           CONNECTED TO MODEL GWF_1            PACKAGE RIV_SYS2         ON UNIT   1019 AT TIME STEP      1, STRESS PERIOD      7

 HEAD WILL BE SAVED ON UNIT 1018 AT END OF TIME STEP    1, STRESS PERIOD    7


  VOLUME BUDGET FOR ENTIRE MODEL AT END OF TIME STEP    1, STRESS PERIOD   7
  ---------------------------------------------------------------------------------------------------

     CUMULATIVE VOLUME      L**3       RATES FOR THIS TIME STEP      L**3/T          PACKAGE NAME    
     ------------------                 ------------------------                     ----------------

           IN:                                      IN:
           ---                                      ---
              STO-SS =685234050142.4449                STO-SS =111121589282.6020     STORAGE                          
                 WEL =           0.0000                   WEL =           0.0000     RIV_CORR                         
                 DRN =           0.0000                   DRN =           0.0000     DRN_SYS1                         
                 RIV =      313465.9573                   RIV =       38428.5518     RIV_SYS1                         
                 RIV =        4200.0000                   RIV =         600.0000     RIV_SYS2                         
                 RCH =    26850457.0787                   RCH =           0.5433     RCH_MSW                          

            TOTAL IN =685261218265.4810              TOTAL IN =111121628311.6971

          OUT:                                     OUT:
          ----                                     ----
              STO-SS =           0.0000                STO-SS =           0.0000     STORAGE                          
                 WEL =685261216270.4800                   WEL =111121628309.9471     RIV_CORR                         
                 DRN =           0.0000                   DRN =           0.0000     DRN_SYS1                         
                 RIV =           0.0000                   RIV =           0.0000     RIV_SYS1                         
                 RIV =           0.0000                   RIV =           0.0000     RIV_SYS2                         
                 RCH =        1995.0085                   RCH =           1.7515     RCH_MSW                          

           TOTAL OUT =685261218265.4885             TOTAL OUT =111121628311.6986

            IN - OUT =      -7.5684E-03              IN - OUT =      -1.5564E-03

 PERCENT DISCREPANCY =          -0.00     PERCENT DISCREPANCY =          -0.00




         TIME SUMMARY AT END OF TIME STEP    1 IN STRESS PERIOD    7
                    SECONDS     MINUTES      HOURS       DAYS        YEARS
                    -----------------------------------------------------------
   TIME STEP LENGTH  86400.      1440.0      24.000      1.0000     2.73785E-03
 STRESS PERIOD TIME  86400.      1440.0      24.000      1.0000     2.73785E-03
         TOTAL TIME 6.04800E+05  10080.      168.00      7.0000     1.91650E-02


end timestep


start timestep kper="8" kstp="1" mode="normal"

 #Stressperiod Save Options

 BEGIN READING OUTPUT CONTROL FOR STRESS PERIOD 8
      ALL TIME STEPS WILL BE SAVED
      ALL TIME STEPS WILL BE SAVED

 END READING OUTPUT CONTROL FOR STRESS PERIOD 8


 PROCESSING STORAGE PERIOD DATA
 END PROCESSING STORAGE PERIOD DATA


 STRESS PERIOD 8 IS TRANSIENT


 REUSING WELS FROM LAST STRESS PERIOD

 REUSING DRNS FROM LAST STRESS PERIOD

 REUSING RIVS FROM LAST STRESS PERIOD

 REUSING RIVS FROM LAST STRESS PERIOD

 REUSING RCHS FROM LAST STRESS PERIOD
 UBDSV06 SAVING              DRN IN MODEL GWF_1            PACKAGE GWF_1           CONNECTED TO MODEL GWF_1            PACKAGE DRN_SYS1         ON UNIT   1019 AT TIME STEP      1, STRESS PERIOD      8
 UBDSV06 SAVING              RIV IN MODEL GWF_1            PACKAGE GWF_1           CONNECTED TO MODEL GWF_1            PACKAGE RIV_SYS1         ON UNIT   1019 AT TIME STEP      1, STRESS PERIOD      8
 UBDSV06 SAVING              RIV IN MODEL GWF_1            PACKAGE GWF_1           CONNECTED TO MODEL GWF_1            PACKAGE RIV_SYS2         ON UNIT   1019 AT TIME STEP      1, STRESS PERIOD      8

 HEAD WILL BE SAVED ON UNIT 1018 AT END OF TIME STEP    1, STRESS PERIOD    8


  VOLUME BUDGET FOR ENTIRE MODEL AT END OF TIME STEP    1, STRESS PERIOD   8
  ---------------------------------------------------------------------------------------------------

     CUMULATIVE VOLUME      L**3       RATES FOR THIS TIME STEP      L**3/T          PACKAGE NAME    
     ------------------                 ------------------------                     ----------------

           IN:                                      IN:
           ---                                      ---
              STO-SS =796355598137.6256                STO-SS =111121547995.1806     STORAGE                          
                 WEL =           0.0000                   WEL =           0.0000     RIV_CORR                         
                 DRN =           0.0000                   DRN =           0.0000     DRN_SYS1                         
                 RIV =      351894.5255                   RIV =       38428.5681     RIV_SYS1                         
                 RIV =        4800.0000                   RIV =         600.0000     RIV_SYS2                         
                 RCH =    26850458.4975                   RCH =           1.4189     RCH_MSW                          

            TOTAL IN =796382805290.6487              TOTAL IN =111121587025.1677

          OUT:                                     OUT:
          ----                                     ----
              STO-SS =           0.0000                STO-SS =           0.0000     STORAGE                          
                 WEL =796382803294.3002                   WEL =111121587023.8202     RIV_CORR                         
                 DRN =           0.0000                   DRN =           0.0000     DRN_SYS1                         
                 RIV =           0.0000                   RIV =           0.0000     RIV_SYS1                         
                 RIV =           0.0000                   RIV =           0.0000     RIV_SYS2                         
                 RCH =        1996.3576                   RCH =           1.3491     RCH_MSW                          

           TOTAL OUT =796382805290.6578             TOTAL OUT =111121587025.1693

            IN - OUT =      -9.1553E-03              IN - OUT =      -1.6479E-03

 PERCENT DISCREPANCY =          -0.00     PERCENT DISCREPANCY =          -0.00




         TIME SUMMARY AT END OF TIME STEP    1 IN STRESS PERIOD    8
                    SECONDS     MINUTES      HOURS       DAYS        YEARS
                    -----------------------------------------------------------
   TIME STEP LENGTH  86400.      1440.0      24.000      1.0000     2.73785E-03
 STRESS PERIOD TIME  86400.      1440.0      24.000      1.0000     2.73785E-03
         TOTAL TIME 6.91200E+05  11520.      192.00      8.0000     2.19028E-02


end timestep


start timestep kper="9" kstp="1" mode="normal"

 #Stressperiod Save Options

 BEGIN READING OUTPUT CONTROL FOR STRESS PERIOD 9
      ALL TIME STEPS WILL BE SAVED
      ALL TIME STEPS WILL BE SAVED

 END READING OUTPUT CONTROL FOR STRESS PERIOD 9


 PROCESSING STORAGE PERIOD DATA
 END PROCESSING STORAGE PERIOD DATA


 STRESS PERIOD 9 IS TRANSIENT


 REUSING WELS FROM LAST STRESS PERIOD

 REUSING DRNS FROM LAST STRESS PERIOD

 REUSING RIVS FROM LAST STRESS PERIOD

 REUSING RIVS FROM LAST STRESS PERIOD

 REUSING RCHS FROM LAST STRESS PERIOD
 UBDSV06 SAVING              DRN IN MODEL GWF_1            PACKAGE GWF_1           CONNECTED TO MODEL GWF_1            PACKAGE DRN_SYS1         ON UNIT   1019 AT TIME STEP      1, STRESS PERIOD      9
 UBDSV06 SAVING              RIV IN MODEL GWF_1            PACKAGE GWF_1           CONNECTED TO MODEL GWF_1            PACKAGE RIV_SYS1         ON UNIT   1019 AT TIME STEP      1, STRESS PERIOD      9
 UBDSV06 SAVING              RIV IN MODEL GWF_1            PACKAGE GWF_1           CONNECTED TO MODEL GWF_1            PACKAGE RIV_SYS2         ON UNIT   1019 AT TIME STEP      1, STRESS PERIOD      9

 HEAD WILL BE SAVED ON UNIT 1018 AT END OF TIME STEP    1, STRESS PERIOD    9


  VOLUME BUDGET FOR ENTIRE MODEL AT END OF TIME STEP    1, STRESS PERIOD   9
  ---------------------------------------------------------------------------------------------------

     CUMULATIVE VOLUME      L**3       RATES FOR THIS TIME STEP      L**3/T          PACKAGE NAME    
     ------------------                 ------------------------                     ----------------

           IN:                                      IN:
           ---                                      ---
              STO-SS =907472846364.8625                STO-SS =111117248227.2370     STORAGE                          
                 WEL =           0.0000                   WEL =           0.0000     RIV_CORR                         
                 DRN =           0.0000                   DRN =           0.0000     DRN_SYS1                         
                 RIV =      390322.2856                   RIV =       38427.7601     RIV_SYS1                         
                 RIV =        5400.0000                   RIV =         600.0000     RIV_SYS2                         
                 RCH =    26850460.7306                   RCH =           2.2330     RCH_MSW                          

            TOTAL IN =907500092547.8788              TOTAL IN =111117287257.2301

          OUT:                                     OUT:
          ----                                     ----
              STO-SS =           0.0000                STO-SS =           0.0000     STORAGE                          
                 WEL =907500090549.9596                   WEL =111117287255.6594     RIV_CORR                         
                 DRN =           0.0000                   DRN =           0.0000     DRN_SYS1                         
                 RIV =           0.0000                   RIV =           0.0000     RIV_SYS1                         
                 RIV =           0.0000                   RIV =           0.0000     RIV_SYS2                         
                 RCH =        1997.9300                   RCH =           1.5724     RCH_MSW                          

           TOTAL OUT =907500092547.8896             TOTAL OUT =111117287257.2318

            IN - OUT =      -1.0864E-02              IN - OUT =      -1.6785E-03

 PERCENT DISCREPANCY =          -0.00     PERCENT DISCREPANCY =          -0.00




         TIME SUMMARY AT END OF TIME STEP    1 IN STRESS PERIOD    9
                    SECONDS     MINUTES      HOURS       DAYS        YEARS
                    -----------------------------------------------------------
   TIME STEP LENGTH  86400.      1440.0      24.000      1.0000     2.73785E-03
 STRESS PERIOD TIME  86400.      1440.0      24.000      1.0000     2.73785E-03
         TOTAL TIME 7.77600E+05  12960.      216.00      9.0000     2.46407E-02


end timestep


start timestep kper="10" kstp="1" mode="normal"

 #Stressperiod Save Options

 BEGIN READING OUTPUT CONTROL FOR STRESS PERIOD 10
      ALL TIME STEPS WILL BE SAVED
      ALL TIME STEPS WILL BE SAVED

 END READING OUTPUT CONTROL FOR STRESS PERIOD 10


 PROCESSING STORAGE PERIOD DATA
 END PROCESSING STORAGE PERIOD DATA


 STRESS PERIOD 10 IS TRANSIENT


 REUSING WELS FROM LAST STRESS PERIOD

 REUSING DRNS FROM LAST STRESS PERIOD

 REUSING RIVS FROM LAST STRESS PERIOD

 REUSING RIVS FROM LAST STRESS PERIOD

 REUSING RCHS FROM LAST STRESS PERIOD
 UBDSV06 SAVING              DRN IN MODEL GWF_1            PACKAGE GWF_1           CONNECTED TO MODEL GWF_1            PACKAGE DRN_SYS1         ON UNIT   1019 AT TIME STEP      1, STRESS PERIOD     10
 UBDSV06 SAVING              RIV IN MODEL GWF_1            PACKAGE GWF_1           CONNECTED TO MODEL GWF_1            PACKAGE RIV_SYS1         ON UNIT   1019 AT TIME STEP      1, STRESS PERIOD     10
 UBDSV06 SAVING              RIV IN MODEL GWF_1            PACKAGE GWF_1           CONNECTED TO MODEL GWF_1            PACKAGE RIV_SYS2         ON UNIT   1019 AT TIME STEP      1, STRESS PERIOD     10

 HEAD WILL BE SAVED ON UNIT 1018 AT END OF TIME STEP    1, STRESS PERIOD   10


  VOLUME BUDGET FOR ENTIRE MODEL AT END OF TIME STEP    1, STRESS PERIOD  10
  ---------------------------------------------------------------------------------------------------

     CUMULATIVE VOLUME      L**3       RATES FOR THIS TIME STEP      L**3/T          PACKAGE NAME    
     ------------------                 ------------------------                     ----------------

           IN:                                      IN:
           ---                                      ---
              STO-SS =       1.0186E+12                STO-SS =111115946505.9736     STORAGE                          
                 WEL =           0.0000                   WEL =           0.0000     RIV_CORR                         
                 DRN =           0.0000                   DRN =           0.0000     DRN_SYS1                         
                 RIV =      428749.8457                   RIV =       38427.5601     RIV_SYS1                         
                 RIV =        6000.0000                   RIV =         600.0000     RIV_SYS2                         
                 RCH =    26850462.4054                   RCH =           1.6748     RCH_MSW                          

            TOTAL IN =       1.0186E+12              TOTAL IN =111115985535.2084

          OUT:                                     OUT:
          ----                                     ----
              STO-SS =           0.0000                STO-SS =           0.0000     STORAGE                          
                 WEL =       1.0186E+12                   WEL =111115985534.8194     RIV_CORR                         
                 DRN =           0.0000                   DRN =           0.0000     DRN_SYS1                         
                 RIV =           0.0000                   RIV =           0.0000     RIV_SYS1                         
                 RIV =           0.0000                   RIV =           0.0000     RIV_SYS2                         
                 RCH =        1998.3208                   RCH =           0.3908     RCH_MSW                          

           TOTAL OUT =       1.0186E+12             TOTAL OUT =111115985535.2101

            IN - OUT =      -1.2573E-02              IN - OUT =      -1.6785E-03

 PERCENT DISCREPANCY =          -0.00     PERCENT DISCREPANCY =          -0.00




         TIME SUMMARY AT END OF TIME STEP    1 IN STRESS PERIOD   10
                    SECONDS     MINUTES      HOURS       DAYS        YEARS
                    -----------------------------------------------------------
   TIME STEP LENGTH  86400.      1440.0      24.000      1.0000     2.73785E-03
 STRESS PERIOD TIME  86400.      1440.0      24.000      1.0000     2.73785E-03
         TOTAL TIME 8.64000E+05  14400.      240.00      10.000     2.73785E-02


end timestep


start timestep kper="11" kstp="1" mode="normal"

 #Stressperiod Save Options

 BEGIN READING OUTPUT CONTROL FOR STRESS PERIOD 11
      ALL TIME STEPS WILL BE SAVED
      ALL TIME STEPS WILL BE SAVED

 END READING OUTPUT CONTROL FOR STRESS PERIOD 11


 PROCESSING STORAGE PERIOD DATA
 END PROCESSING STORAGE PERIOD DATA


 STRESS PERIOD 11 IS TRANSIENT


 REUSING WELS FROM LAST STRESS PERIOD

 REUSING DRNS FROM LAST STRESS PERIOD

 REUSING RIVS FROM LAST STRESS PERIOD

 REUSING RIVS FROM LAST STRESS PERIOD

 REUSING RCHS FROM LAST STRESS PERIOD
 UBDSV06 SAVING              DRN IN MODEL GWF_1            PACKAGE GWF_1           CONNECTED TO MODEL GWF_1            PACKAGE DRN_SYS1         ON UNIT   1019 AT TIME STEP      1, STRESS PERIOD     11
 UBDSV06 SAVING              RIV IN MODEL GWF_1            PACKAGE GWF_1           CONNECTED TO MODEL GWF_1            PACKAGE RIV_SYS1         ON UNIT   1019 AT TIME STEP      1, STRESS PERIOD     11
 UBDSV06 SAVING              RIV IN MODEL GWF_1            PACKAGE GWF_1           CONNECTED TO MODEL GWF_1            PACKAGE RIV_SYS2         ON UNIT   1019 AT TIME STEP      1, STRESS PERIOD     11

 HEAD WILL BE SAVED ON UNIT 1018 AT END OF TIME STEP    1, STRESS PERIOD   11


  VOLUME BUDGET FOR ENTIRE MODEL AT END OF TIME STEP    1, STRESS PERIOD  11
  ---------------------------------------------------------------------------------------------------

     CUMULATIVE VOLUME      L**3       RATES FOR THIS TIME STEP      L**3/T          PACKAGE NAME    
     ------------------                 ------------------------                     ----------------

           IN:                                      IN:
           ---                                      ---
              STO-SS =       1.1297E+12                STO-SS =111117732981.4282     STORAGE                          
                 WEL =           0.0000                   WEL =           0.0000     RIV_CORR                         
                 DRN =           0.0000                   DRN =           0.0000     DRN_SYS1                         
                 RIV =      467177.6607                   RIV =       38427.8150     RIV_SYS1                         
                 RIV =        6600.0000                   RIV =         600.0000     RIV_SYS2                         
                 RCH =    26850789.7989                   RCH =         327.3936     RCH_MSW                          

            TOTAL IN =       1.1297E+12              TOTAL IN =111117772336.6368

          OUT:                                     OUT:
          ----                                     ----
              STO-SS =           0.0000                STO-SS =           0.0000     STORAGE                          
                 WEL =       1.1297E+12                   WEL =111117772335.6983     RIV_CORR                         
                 DRN =           0.0000                   DRN =           0.0000     DRN_SYS1                         
                 RIV =           0.0000                   RIV =           0.0000     RIV_SYS1                         
                 RIV =           0.0000                   RIV =           0.0000     RIV_SYS2                         
                 RCH =        1999.2609                   RCH =           0.9401     RCH_MSW                          

           TOTAL OUT =       1.1297E+12             TOTAL OUT =111117772336.6385

            IN - OUT =      -1.4648E-02              IN - OUT =      -1.7242E-03

 PERCENT DISCREPANCY =          -0.00     PERCENT DISCREPANCY =          -0.00




         TIME SUMMARY AT END OF TIME STEP    1 IN STRESS PERIOD   11
                    SECONDS     MINUTES      HOURS       DAYS        YEARS
                    -----------------------------------------------------------
   TIME STEP LENGTH  86400.      1440.0      24.000      1.0000     2.73785E-03
 STRESS PERIOD TIME  86400.      1440.0      24.000      1.0000     2.73785E-03
         TOTAL TIME 9.50400E+05  15840.      264.00      11.000     3.01164E-02


end timestep


start timestep kper="12" kstp="1" mode="normal"

 #Stressperiod Save Options

 BEGIN READING OUTPUT CONTROL FOR STRESS PERIOD 12
      ALL TIME STEPS WILL BE SAVED
      ALL TIME STEPS WILL BE SAVED

 END READING OUTPUT CONTROL FOR STRESS PERIOD 12


 PROCESSING STORAGE PERIOD DATA
 END PROCESSING STORAGE PERIOD DATA


 STRESS PERIOD 12 IS TRANSIENT


 REUSING WELS FROM LAST STRESS PERIOD

 REUSING DRNS FROM LAST STRESS PERIOD

 REUSING RIVS FROM LAST STRESS PERIOD

 REUSING RIVS FROM LAST STRESS PERIOD

 REUSING RCHS FROM LAST STRESS PERIOD
 UBDSV06 SAVING              DRN IN MODEL GWF_1            PACKAGE GWF_1           CONNECTED TO MODEL GWF_1            PACKAGE DRN_SYS1         ON UNIT   1019 AT TIME STEP      1, STRESS PERIOD     12
 UBDSV06 SAVING              RIV IN MODEL GWF_1            PACKAGE GWF_1           CONNECTED TO MODEL GWF_1            PACKAGE RIV_SYS1         ON UNIT   1019 AT TIME STEP      1, STRESS PERIOD     12
 UBDSV06 SAVING              RIV IN MODEL GWF_1            PACKAGE GWF_1           CONNECTED TO MODEL GWF_1            PACKAGE RIV_SYS2         ON UNIT   1019 AT TIME STEP      1, STRESS PERIOD     12

 HEAD WILL BE SAVED ON UNIT 1018 AT END OF TIME STEP    1, STRESS PERIOD   12


  VOLUME BUDGET FOR ENTIRE MODEL AT END OF TIME STEP    1, STRESS PERIOD  12
  ---------------------------------------------------------------------------------------------------

     CUMULATIVE VOLUME      L**3       RATES FOR THIS TIME STEP      L**3/T          PACKAGE NAME    
     ------------------                 ------------------------                     ----------------

           IN:                                      IN:
           ---                                      ---
              STO-SS =       1.2408E+12                STO-SS =111122157062.6984     STORAGE                          
                 WEL =           0.0000                   WEL =           0.0000     RIV_CORR                         
                 DRN =           0.0000                   DRN =           0.0000     DRN_SYS1                         
                 RIV =      505606.3142                   RIV =       38428.6535     RIV_SYS1                         
                 RIV =        7200.0000                   RIV =         600.0000     RIV_SYS2                         
                 RCH =    26850797.3747                   RCH =           7.5758     RCH_MSW                          

            TOTAL IN =       1.2409E+12              TOTAL IN =111122196098.9277

          OUT:                                     OUT:
          ----                                     ----
              STO-SS =           0.0000                STO-SS =           0.0000     STORAGE                          
                 WEL =       1.2409E+12                   WEL =111122196097.8088     RIV_CORR                         
                 DRN =           0.0000                   DRN =           0.0000     DRN_SYS1                         
                 RIV =           0.0000                   RIV =           0.0000     RIV_SYS1                         
                 RIV =           0.0000                   RIV =           0.0000     RIV_SYS2                         
                 RCH =        2000.3815                   RCH =           1.1206     RCH_MSW                          

           TOTAL OUT =       1.2409E+12             TOTAL OUT =111122196098.9294

            IN - OUT =      -1.6113E-02              IN - OUT =      -1.7090E-03

 PERCENT DISCREPANCY =          -0.00     PERCENT DISCREPANCY =          -0.00




         TIME SUMMARY AT END OF TIME STEP    1 IN STRESS PERIOD   12
                    SECONDS     MINUTES      HOURS       DAYS        YEARS
                    -----------------------------------------------------------
   TIME STEP LENGTH  86400.      1440.0      24.000      1.0000     2.73785E-03
 STRESS PERIOD TIME  86400.      1440.0      24.000      1.0000     2.73785E-03
         TOTAL TIME 1.03680E+06  17280.      288.00      12.000     3.28542E-02


end timestep


start timestep kper="13" kstp="1" mode="normal"

 #Stressperiod Save Options

 BEGIN READING OUTPUT CONTROL FOR STRESS PERIOD 13
      ALL TIME STEPS WILL BE SAVED
      ALL TIME STEPS WILL BE SAVED

 END READING OUTPUT CONTROL FOR STRESS PERIOD 13


 PROCESSING STORAGE PERIOD DATA
 END PROCESSING STORAGE PERIOD DATA


 STRESS PERIOD 13 IS TRANSIENT


 REUSING WELS FROM LAST STRESS PERIOD

 REUSING DRNS FROM LAST STRESS PERIOD

 REUSING RIVS FROM LAST STRESS PERIOD

 REUSING RIVS FROM LAST STRESS PERIOD

 REUSING RCHS FROM LAST STRESS PERIOD
 UBDSV06 SAVING              DRN IN MODEL GWF_1            PACKAGE GWF_1           CONNECTED TO MODEL GWF_1            PACKAGE DRN_SYS1         ON UNIT   1019 AT TIME STEP      1, STRESS PERIOD     13
 UBDSV06 SAVING              RIV IN MODEL GWF_1            PACKAGE GWF_1           CONNECTED TO MODEL GWF_1            PACKAGE RIV_SYS1         ON UNIT   1019 AT TIME STEP      1, STRESS PERIOD     13
 UBDSV06 SAVING              RIV IN MODEL GWF_1            PACKAGE GWF_1           CONNECTED TO MODEL GWF_1            PACKAGE RIV_SYS2         ON UNIT   1019 AT TIME STEP      1, STRESS PERIOD     13

 HEAD WILL BE SAVED ON UNIT 1018 AT END OF TIME STEP    1, STRESS PERIOD   13


  VOLUME BUDGET FOR ENTIRE MODEL AT END OF TIME STEP    1, STRESS PERIOD  13
  ---------------------------------------------------------------------------------------------------

     CUMULATIVE VOLUME      L**3       RATES FOR THIS TIME STEP      L**3/T          PACKAGE NAME    
     ------------------                 ------------------------                     ----------------

           IN:                                      IN:
           ---                                      ---
              STO-SS =       1.3520E+12                STO-SS =111121777786.6249     STORAGE                          
                 WEL =           0.0000                   WEL =           0.0000     RIV_CORR                         
                 DRN =           0.0000                   DRN =           0.0000     DRN_SYS1                         
                 RIV =      544034.8907                   RIV =       38428.5765     RIV_SYS1                         
                 RIV =        7800.0000                   RIV =         600.0000     RIV_SYS2                         
                 RCH =    26850798.9913                   RCH =           1.6166     RCH_MSW                          

            TOTAL IN =       1.3520E+12              TOTAL IN =111121816816.8181

          OUT:                                     OUT:
          ----                                     ----
              STO-SS =           0.0000                STO-SS =           0.0000     STORAGE                          
                 WEL =       1.3520E+12                   WEL =111121816815.8778     RIV_CORR                         
                 DRN =           0.0000                   DRN =           0.0000     DRN_SYS1                         
                 RIV =           0.0000                   RIV =           0.0000     RIV_SYS1                         
                 RIV =           0.0000                   RIV =           0.0000     RIV_SYS2                         
                 RCH =        2001.3232                   RCH =           0.9417     RCH_MSW                          

           TOTAL OUT =       1.3520E+12             TOTAL OUT =111121816816.8194

            IN - OUT =      -1.7578E-02              IN - OUT =      -1.3885E-03

 PERCENT DISCREPANCY =          -0.00     PERCENT DISCREPANCY =          -0.00




         TIME SUMMARY AT END OF TIME STEP    1 IN STRESS PERIOD   13
                    SECONDS     MINUTES      HOURS       DAYS        YEARS
                    -----------------------------------------------------------
   TIME STEP LENGTH  86400.      1440.0      24.000      1.0000     2.73785E-03
 STRESS PERIOD TIME  86400.      1440.0      24.000      1.0000     2.73785E-03
         TOTAL TIME 1.12320E+06  18720.      312.00      13.000     3.55921E-02


end timestep


start timestep kper="14" kstp="1" mode="normal"

 #Stressperiod Save Options

 BEGIN READING OUTPUT CONTROL FOR STRESS PERIOD 14
      ALL TIME STEPS WILL BE SAVED
      ALL TIME STEPS WILL BE SAVED

 END READING OUTPUT CONTROL FOR STRESS PERIOD 14


 PROCESSING STORAGE PERIOD DATA
 END PROCESSING STORAGE PERIOD DATA


 STRESS PERIOD 14 IS TRANSIENT


 REUSING WELS FROM LAST STRESS PERIOD

 REUSING DRNS FROM LAST STRESS PERIOD

 REUSING RIVS FROM LAST STRESS PERIOD

 REUSING RIVS FROM LAST STRESS PERIOD

 REUSING RCHS FROM LAST STRESS PERIOD
 UBDSV06 SAVING              DRN IN MODEL GWF_1            PACKAGE GWF_1           CONNECTED TO MODEL GWF_1            PACKAGE DRN_SYS1         ON UNIT   1019 AT TIME STEP      1, STRESS PERIOD     14
 UBDSV06 SAVING              RIV IN MODEL GWF_1            PACKAGE GWF_1           CONNECTED TO MODEL GWF_1            PACKAGE RIV_SYS1         ON UNIT   1019 AT TIME STEP      1, STRESS PERIOD     14
 UBDSV06 SAVING              RIV IN MODEL GWF_1            PACKAGE GWF_1           CONNECTED TO MODEL GWF_1            PACKAGE RIV_SYS2         ON UNIT   1019 AT TIME STEP      1, STRESS PERIOD     14

 HEAD WILL BE SAVED ON UNIT 1018 AT END OF TIME STEP    1, STRESS PERIOD   14


  VOLUME BUDGET FOR ENTIRE MODEL AT END OF TIME STEP    1, STRESS PERIOD  14
  ---------------------------------------------------------------------------------------------------

     CUMULATIVE VOLUME      L**3       RATES FOR THIS TIME STEP      L**3/T          PACKAGE NAME    
     ------------------                 ------------------------                     ----------------

           IN:                                      IN:
           ---                                      ---
              STO-SS =       1.4631E+12                STO-SS =111121723455.9606     STORAGE                          
                 WEL =           0.0000                   WEL =           0.0000     RIV_CORR                         
                 DRN =           0.0000                   DRN =           0.0000     DRN_SYS1                         
                 RIV =      582463.4877                   RIV =       38428.5970     RIV_SYS1                         
                 RIV =        8400.0000                   RIV =         600.0000     RIV_SYS2                         
                 RCH =    26851243.1151                   RCH =         444.1239     RCH_MSW                          

            TOTAL IN =       1.4631E+12              TOTAL IN =111121762928.6814

          OUT:                                     OUT:
          ----                                     ----
              STO-SS =           0.0000                STO-SS =           0.0000     STORAGE                          
                 WEL =       1.4631E+12                   WEL =111121762928.2999     RIV_CORR                         
                 DRN =           0.0000                   DRN =           0.0000     DRN_SYS1                         
                 RIV =           0.0000                   RIV =           0.0000     RIV_SYS1                         
                 RIV =           0.0000                   RIV =           0.0000     RIV_SYS2                         
                 RCH =        2001.7059                   RCH =           0.3828     RCH_MSW                          

           TOTAL OUT =       1.4631E+12             TOTAL OUT =111121762928.6827

            IN - OUT =      -1.8555E-02              IN - OUT =      -1.2665E-03

 PERCENT DISCREPANCY =          -0.00     PERCENT DISCREPANCY =          -0.00




         TIME SUMMARY AT END OF TIME STEP    1 IN STRESS PERIOD   14
                    SECONDS     MINUTES      HOURS       DAYS        YEARS
                    -----------------------------------------------------------
   TIME STEP LENGTH  86400.      1440.0      24.000      1.0000     2.73785E-03
 STRESS PERIOD TIME  86400.      1440.0      24.000      1.0000     2.73785E-03
         TOTAL TIME 1.20960E+06  20160.      336.00      14.000     3.83299E-02


end timestep


start timestep kper="15" kstp="1" mode="normal"

 #Stressperiod Save Options

 BEGIN READING OUTPUT CONTROL FOR STRESS PERIOD 15
      ALL TIME STEPS WILL BE SAVED
      ALL TIME STEPS WILL BE SAVED

 END READING OUTPUT CONTROL FOR STRESS PERIOD 15


 PROCESSING STORAGE PERIOD DATA
 END PROCESSING STORAGE PERIOD DATA


 STRESS PERIOD 15 IS TRANSIENT


 REUSING WELS FROM LAST STRESS PERIOD

 REUSING DRNS FROM LAST STRESS PERIOD

 REUSING RIVS FROM LAST STRESS PERIOD

 REUSING RIVS FROM LAST STRESS PERIOD

 REUSING RCHS FROM LAST STRESS PERIOD
 UBDSV06 SAVING              DRN IN MODEL GWF_1            PACKAGE GWF_1           CONNECTED TO MODEL GWF_1            PACKAGE DRN_SYS1         ON UNIT   1019 AT TIME STEP      1, STRESS PERIOD     15
 UBDSV06 SAVING              RIV IN MODEL GWF_1            PACKAGE GWF_1           CONNECTED TO MODEL GWF_1            PACKAGE RIV_SYS1         ON UNIT   1019 AT TIME STEP      1, STRESS PERIOD     15
 UBDSV06 SAVING              RIV IN MODEL GWF_1            PACKAGE GWF_1           CONNECTED TO MODEL GWF_1            PACKAGE RIV_SYS2         ON UNIT   1019 AT TIME STEP      1, STRESS PERIOD     15

 HEAD WILL BE SAVED ON UNIT 1018 AT END OF TIME STEP    1, STRESS PERIOD   15


  VOLUME BUDGET FOR ENTIRE MODEL AT END OF TIME STEP    1, STRESS PERIOD  15
  ---------------------------------------------------------------------------------------------------

     CUMULATIVE VOLUME      L**3       RATES FOR THIS TIME STEP      L**3/T          PACKAGE NAME    
     ------------------                 ------------------------                     ----------------

           IN:                                      IN:
           ---                                      ---
              STO-SS =       1.5742E+12                STO-SS =111123856972.2397     STORAGE                          
                 WEL =           0.0000                   WEL =           0.0000     RIV_CORR                         
                 DRN =           0.0000                   DRN =           0.0000     DRN_SYS1                         
                 RIV =      620892.4193                   RIV =       38428.9316     RIV_SYS1                         
                 RIV =        9000.0000                   RIV =         600.0000     RIV_SYS2                         
                 RCH =    26851244.5924                   RCH =           1.4772     RCH_MSW                          

            TOTAL IN =       1.5742E+12              TOTAL IN =111123896002.6485

          OUT:                                     OUT:
          ----                                     ----
              STO-SS =           0.0000                STO-SS =           0.0000     STORAGE                          
                 WEL =       1.5742E+12                   WEL =111123896002.5644     RIV_CORR                         
                 DRN =           0.0000                   DRN =           0.0000     DRN_SYS1                         
                 RIV =           0.0000                   RIV =           0.0000     RIV_SYS1                         
                 RIV =           0.0000                   RIV =           0.0000     RIV_SYS2                         
                 RCH =        2001.7910                   RCH =       8.5117E-02     RCH_MSW                          

           TOTAL OUT =       1.5742E+12             TOTAL OUT =111123896002.6496

            IN - OUT =      -1.9531E-02              IN - OUT =      -1.0223E-03

 PERCENT DISCREPANCY =          -0.00     PERCENT DISCREPANCY =          -0.00




         TIME SUMMARY AT END OF TIME STEP    1 IN STRESS PERIOD   15
                    SECONDS     MINUTES      HOURS       DAYS        YEARS
                    -----------------------------------------------------------
   TIME STEP LENGTH  86400.      1440.0      24.000      1.0000     2.73785E-03
 STRESS PERIOD TIME  86400.      1440.0      24.000      1.0000     2.73785E-03
         TOTAL TIME 1.29600E+06  21600.      360.00      15.000     4.10678E-02


end timestep


start timestep kper="16" kstp="1" mode="normal"

 #Stressperiod Save Options

 BEGIN READING OUTPUT CONTROL FOR STRESS PERIOD 16
      ALL TIME STEPS WILL BE SAVED
      ALL TIME STEPS WILL BE SAVED

 END READING OUTPUT CONTROL FOR STRESS PERIOD 16


 PROCESSING STORAGE PERIOD DATA
 END PROCESSING STORAGE PERIOD DATA


 STRESS PERIOD 16 IS TRANSIENT


 REUSING WELS FROM LAST STRESS PERIOD

 REUSING DRNS FROM LAST STRESS PERIOD

 REUSING RIVS FROM LAST STRESS PERIOD

 REUSING RIVS FROM LAST STRESS PERIOD

 REUSING RCHS FROM LAST STRESS PERIOD
 UBDSV06 SAVING              DRN IN MODEL GWF_1            PACKAGE GWF_1           CONNECTED TO MODEL GWF_1            PACKAGE DRN_SYS1         ON UNIT   1019 AT TIME STEP      1, STRESS PERIOD     16
 UBDSV06 SAVING              RIV IN MODEL GWF_1            PACKAGE GWF_1           CONNECTED TO MODEL GWF_1            PACKAGE RIV_SYS1         ON UNIT   1019 AT TIME STEP      1, STRESS PERIOD     16
 UBDSV06 SAVING              RIV IN MODEL GWF_1            PACKAGE GWF_1           CONNECTED TO MODEL GWF_1            PACKAGE RIV_SYS2         ON UNIT   1019 AT TIME STEP      1, STRESS PERIOD     16

 HEAD WILL BE SAVED ON UNIT 1018 AT END OF TIME STEP    1, STRESS PERIOD   16


  VOLUME BUDGET FOR ENTIRE MODEL AT END OF TIME STEP    1, STRESS PERIOD  16
  ---------------------------------------------------------------------------------------------------

     CUMULATIVE VOLUME      L**3       RATES FOR THIS TIME STEP      L**3/T          PACKAGE NAME    
     ------------------                 ------------------------                     ----------------

           IN:                                      IN:
           ---                                      ---
              STO-SS =       1.6853E+12                STO-SS =111121545046.8884     STORAGE                          
                 WEL =           0.0000                   WEL =           0.0000     RIV_CORR                         
                 DRN =           0.0000                   DRN =           0.0000     DRN_SYS1                         
                 RIV =      659320.9732                   RIV =       38428.5539     RIV_SYS1                         
                 RIV =        9600.0000                   RIV =         600.0000     RIV_SYS2                         
                 RCH =    26851246.2886                   RCH =           1.6962     RCH_MSW                          

            TOTAL IN =       1.6853E+12              TOTAL IN =111121584077.1385

          OUT:                                     OUT:
          ----                                     ----
              STO-SS =           0.0000                STO-SS =           0.0000     STORAGE                          
                 WEL =       1.6853E+12                   WEL =111121584075.3738     RIV_CORR                         
                 DRN =           0.0000                   DRN =           0.0000     DRN_SYS1                         
                 RIV =           0.0000                   RIV =           0.0000     RIV_SYS1                         
                 RIV =           0.0000                   RIV =           0.0000     RIV_SYS2                         
                 RCH =        2003.5565                   RCH =           1.7654     RCH_MSW                          

           TOTAL OUT =       1.6853E+12             TOTAL OUT =111121584077.1392

            IN - OUT =      -2.0264E-02              IN - OUT =      -7.6294E-04

 PERCENT DISCREPANCY =          -0.00     PERCENT DISCREPANCY =          -0.00




         TIME SUMMARY AT END OF TIME STEP    1 IN STRESS PERIOD   16
                    SECONDS     MINUTES      HOURS       DAYS        YEARS
                    -----------------------------------------------------------
   TIME STEP LENGTH  86400.      1440.0      24.000      1.0000     2.73785E-03
 STRESS PERIOD TIME  86400.      1440.0      24.000      1.0000     2.73785E-03
         TOTAL TIME 1.38240E+06  23040.      384.00      16.000     4.38056E-02


end timestep


start timestep kper="17" kstp="1" mode="normal"

 #Stressperiod Save Options

 BEGIN READING OUTPUT CONTROL FOR STRESS PERIOD 17
      ALL TIME STEPS WILL BE SAVED
      ALL TIME STEPS WILL BE SAVED

 END READING OUTPUT CONTROL FOR STRESS PERIOD 17


 PROCESSING STORAGE PERIOD DATA
 END PROCESSING STORAGE PERIOD DATA


 STRESS PERIOD 17 IS TRANSIENT


 REUSING WELS FROM LAST STRESS PERIOD

 REUSING DRNS FROM LAST STRESS PERIOD

 REUSING RIVS FROM LAST STRESS PERIOD

 REUSING RIVS FROM LAST STRESS PERIOD

 REUSING RCHS FROM LAST STRESS PERIOD
 UBDSV06 SAVING              DRN IN MODEL GWF_1            PACKAGE GWF_1           CONNECTED TO MODEL GWF_1            PACKAGE DRN_SYS1         ON UNIT   1019 AT TIME STEP      1, STRESS PERIOD     17
 UBDSV06 SAVING              RIV IN MODEL GWF_1            PACKAGE GWF_1           CONNECTED TO MODEL GWF_1            PACKAGE RIV_SYS1         ON UNIT   1019 AT TIME STEP      1, STRESS PERIOD     17
 UBDSV06 SAVING              RIV IN MODEL GWF_1            PACKAGE GWF_1           CONNECTED TO MODEL GWF_1            PACKAGE RIV_SYS2         ON UNIT   1019 AT TIME STEP      1, STRESS PERIOD     17

 HEAD WILL BE SAVED ON UNIT 1018 AT END OF TIME STEP    1, STRESS PERIOD   17


  VOLUME BUDGET FOR ENTIRE MODEL AT END OF TIME STEP    1, STRESS PERIOD  17
  ---------------------------------------------------------------------------------------------------

     CUMULATIVE VOLUME      L**3       RATES FOR THIS TIME STEP      L**3/T          PACKAGE NAME    
     ------------------                 ------------------------                     ----------------

           IN:                                      IN:
           ---                                      ---
              STO-SS =       1.7964E+12                STO-SS =111121402459.3179     STORAGE                          
                 WEL =           0.0000                   WEL =           0.0000     RIV_CORR                         
                 DRN =           0.0000                   DRN =           0.0000     DRN_SYS1                         
                 RIV =      697749.4904                   RIV =       38428.5172     RIV_SYS1                         
                 RIV =       10200.0000                   RIV =         600.0000     RIV_SYS2                         
                 RCH =    26851247.5749                   RCH =           1.2864     RCH_MSW                          

            TOTAL IN =       1.7965E+12              TOTAL IN =111121441489.1215

          OUT:                                     OUT:
          ----                                     ----
              STO-SS =           0.0000                STO-SS =           0.0000     STORAGE                          
                 WEL =       1.7965E+12                   WEL =111121441487.4662     RIV_CORR                         
[...]

 REUSING RIVS FROM LAST STRESS PERIOD

 REUSING RIVS FROM LAST STRESS PERIOD

 REUSING RCHS FROM LAST STRESS PERIOD
 UBDSV06 SAVING              DRN IN MODEL GWF_1            PACKAGE GWF_1           CONNECTED TO MODEL GWF_1            PACKAGE DRN_SYS1         ON UNIT   1019 AT TIME STEP      1, STRESS PERIOD    361
 UBDSV06 SAVING              RIV IN MODEL GWF_1            PACKAGE GWF_1           CONNECTED TO MODEL GWF_1            PACKAGE RIV_SYS1         ON UNIT   1019 AT TIME STEP      1, STRESS PERIOD    361
 UBDSV06 SAVING              RIV IN MODEL GWF_1            PACKAGE GWF_1           CONNECTED TO MODEL GWF_1            PACKAGE RIV_SYS2         ON UNIT   1019 AT TIME STEP      1, STRESS PERIOD    361

 HEAD WILL BE SAVED ON UNIT 1018 AT END OF TIME STEP    1, STRESS PERIOD  361


  VOLUME BUDGET FOR ENTIRE MODEL AT END OF TIME STEP    1, STRESS PERIOD 361
  ---------------------------------------------------------------------------------------------------

     CUMULATIVE VOLUME      L**3       RATES FOR THIS TIME STEP      L**3/T          PACKAGE NAME    
     ------------------                 ------------------------                     ----------------

           IN:                                      IN:
           ---                                      ---
              STO-SS =       4.0011E+13                STO-SS =111122666463.4258     STORAGE                          
                 WEL =           0.0000                   WEL =           0.0000     RIV_CORR                         
                 DRN =           0.0000                   DRN =           0.0000     DRN_SYS1                         
                 RIV =    13915246.0935                   RIV =       38428.6562     RIV_SYS1                         
                 RIV =      216600.0000                   RIV =         600.0000     RIV_SYS2                         
                 RCH =    26882898.8917                   RCH =       23939.1037     RCH_MSW                          

            TOTAL IN =       4.0011E+13              TOTAL IN =111122729431.1857

          OUT:                                     OUT:
          ----                                     ----
              STO-SS =           0.0000                STO-SS =           0.0000     STORAGE                          
                 WEL =       4.0011E+13                   WEL =111122729431.1819     RIV_CORR                         
                 DRN =           0.0000                   DRN =           0.0000     DRN_SYS1                         
                 RIV =           0.0000                   RIV =           0.0000     RIV_SYS1                         
                 RIV =           0.0000                   RIV =           0.0000     RIV_SYS2                         
                 RCH =        2265.1060                   RCH =           0.0000     RCH_MSW                          

           TOTAL OUT =       4.0011E+13             TOTAL OUT =111122729431.1819

            IN - OUT =           0.8750              IN - OUT =       3.8452E-03

 PERCENT DISCREPANCY =           0.00     PERCENT DISCREPANCY =           0.00




         TIME SUMMARY AT END OF TIME STEP    1 IN STRESS PERIOD  361
                    SECONDS     MINUTES      HOURS       DAYS        YEARS
                    -----------------------------------------------------------
   TIME STEP LENGTH  86400.      1440.0      24.000      1.0000     2.73785E-03
 STRESS PERIOD TIME  86400.      1440.0      24.000      1.0000     2.73785E-03
         TOTAL TIME 3.11904E+07 5.19840E+05  8664.0      361.00     0.98836    


end timestep


start timestep kper="362" kstp="1" mode="normal"

 #Stressperiod Save Options

 BEGIN READING OUTPUT CONTROL FOR STRESS PERIOD 362
      ALL TIME STEPS WILL BE SAVED
      ALL TIME STEPS WILL BE SAVED

 END READING OUTPUT CONTROL FOR STRESS PERIOD 362


 PROCESSING STORAGE PERIOD DATA
 END PROCESSING STORAGE PERIOD DATA


 STRESS PERIOD 362 IS TRANSIENT


 REUSING WELS FROM LAST STRESS PERIOD

 REUSING DRNS FROM LAST STRESS PERIOD

 REUSING RIVS FROM LAST STRESS PERIOD

 REUSING RIVS FROM LAST STRESS PERIOD

 REUSING RCHS FROM LAST STRESS PERIOD
 UBDSV06 SAVING              DRN IN MODEL GWF_1            PACKAGE GWF_1           CONNECTED TO MODEL GWF_1            PACKAGE DRN_SYS1         ON UNIT   1019 AT TIME STEP      1, STRESS PERIOD    362
 UBDSV06 SAVING              RIV IN MODEL GWF_1            PACKAGE GWF_1           CONNECTED TO MODEL GWF_1            PACKAGE RIV_SYS1         ON UNIT   1019 AT TIME STEP      1, STRESS PERIOD    362
 UBDSV06 SAVING              RIV IN MODEL GWF_1            PACKAGE GWF_1           CONNECTED TO MODEL GWF_1            PACKAGE RIV_SYS2         ON UNIT   1019 AT TIME STEP      1, STRESS PERIOD    362

 HEAD WILL BE SAVED ON UNIT 1018 AT END OF TIME STEP    1, STRESS PERIOD  362


  VOLUME BUDGET FOR ENTIRE MODEL AT END OF TIME STEP    1, STRESS PERIOD 362
  ---------------------------------------------------------------------------------------------------

     CUMULATIVE VOLUME      L**3       RATES FOR THIS TIME STEP      L**3/T          PACKAGE NAME    
     ------------------                 ------------------------                     ----------------

           IN:                                      IN:
           ---                                      ---
              STO-SS =       4.0122E+13                STO-SS =111117068976.6833     STORAGE                          
                 WEL =           0.0000                   WEL =           0.0000     RIV_CORR                         
                 DRN =           0.0000                   DRN =           0.0000     DRN_SYS1                         
                 RIV =    13953673.7697                   RIV =       38427.6762     RIV_SYS1                         
                 RIV =      217200.0000                   RIV =         600.0000     RIV_SYS2                         
                 RCH =    26882902.6755                   RCH =           3.7838     RCH_MSW                          

            TOTAL IN =       4.0122E+13              TOTAL IN =111117108008.1434

          OUT:                                     OUT:
          ----                                     ----
              STO-SS =           0.0000                STO-SS =           0.0000     STORAGE                          
                 WEL =       4.0122E+13                   WEL =111117108008.0470     RIV_CORR                         
                 DRN =           0.0000                   DRN =           0.0000     DRN_SYS1                         
                 RIV =           0.0000                   RIV =           0.0000     RIV_SYS1                         
                 RIV =           0.0000                   RIV =           0.0000     RIV_SYS2                         
                 RCH =        2265.1977                   RCH =       9.1642E-02     RCH_MSW                          

           TOTAL OUT =       4.0122E+13             TOTAL OUT =111117108008.1386

            IN - OUT =           0.8828              IN - OUT =       4.7607E-03

 PERCENT DISCREPANCY =           0.00     PERCENT DISCREPANCY =           0.00




         TIME SUMMARY AT END OF TIME STEP    1 IN STRESS PERIOD  362
                    SECONDS     MINUTES      HOURS       DAYS        YEARS
                    -----------------------------------------------------------
   TIME STEP LENGTH  86400.      1440.0      24.000      1.0000     2.73785E-03
 STRESS PERIOD TIME  86400.      1440.0      24.000      1.0000     2.73785E-03
         TOTAL TIME 3.12768E+07 5.21280E+05  8688.0      362.00     0.99110    


end timestep


start timestep kper="363" kstp="1" mode="normal"

 #Stressperiod Save Options

 BEGIN READING OUTPUT CONTROL FOR STRESS PERIOD 363
      ALL TIME STEPS WILL BE SAVED
      ALL TIME STEPS WILL BE SAVED

 END READING OUTPUT CONTROL FOR STRESS PERIOD 363


 PROCESSING STORAGE PERIOD DATA
 END PROCESSING STORAGE PERIOD DATA


 STRESS PERIOD 363 IS TRANSIENT


 REUSING WELS FROM LAST STRESS PERIOD

 REUSING DRNS FROM LAST STRESS PERIOD

 REUSING RIVS FROM LAST STRESS PERIOD

 REUSING RIVS FROM LAST STRESS PERIOD

 REUSING RCHS FROM LAST STRESS PERIOD
 UBDSV06 SAVING              DRN IN MODEL GWF_1            PACKAGE GWF_1           CONNECTED TO MODEL GWF_1            PACKAGE DRN_SYS1         ON UNIT   1019 AT TIME STEP      1, STRESS PERIOD    363
 UBDSV06 SAVING              RIV IN MODEL GWF_1            PACKAGE GWF_1           CONNECTED TO MODEL GWF_1            PACKAGE RIV_SYS1         ON UNIT   1019 AT TIME STEP      1, STRESS PERIOD    363
 UBDSV06 SAVING              RIV IN MODEL GWF_1            PACKAGE GWF_1           CONNECTED TO MODEL GWF_1            PACKAGE RIV_SYS2         ON UNIT   1019 AT TIME STEP      1, STRESS PERIOD    363

 HEAD WILL BE SAVED ON UNIT 1018 AT END OF TIME STEP    1, STRESS PERIOD  363


  VOLUME BUDGET FOR ENTIRE MODEL AT END OF TIME STEP    1, STRESS PERIOD 363
  ---------------------------------------------------------------------------------------------------

     CUMULATIVE VOLUME      L**3       RATES FOR THIS TIME STEP      L**3/T          PACKAGE NAME    
     ------------------                 ------------------------                     ----------------

           IN:                                      IN:
           ---                                      ---
              STO-SS =       4.0233E+13                STO-SS =111121537794.0590     STORAGE                          
                 WEL =           0.0000                   WEL =           0.0000     RIV_CORR                         
                 DRN =           0.0000                   DRN =           0.0000     DRN_SYS1                         
                 RIV =    13992102.2419                   RIV =       38428.4722     RIV_SYS1                         
                 RIV =      217800.0000                   RIV =         600.0000     RIV_SYS2                         
                 RCH =    26882903.4671                   RCH =           0.7916     RCH_MSW                          

            TOTAL IN =       4.0233E+13              TOTAL IN =111121576823.3229

          OUT:                                     OUT:
          ----                                     ----
              STO-SS =           0.0000                STO-SS =           0.0000     STORAGE                          
                 WEL =       4.0233E+13                   WEL =111121576821.9775     RIV_CORR                         
                 DRN =           0.0000                   DRN =           0.0000     DRN_SYS1                         
                 RIV =           0.0000                   RIV =           0.0000     RIV_SYS1                         
                 RIV =           0.0000                   RIV =           0.0000     RIV_SYS2                         
                 RCH =        2266.5366                   RCH =           1.3389     RCH_MSW                          

           TOTAL OUT =       4.0233E+13             TOTAL OUT =111121576823.3164

            IN - OUT =           0.8906              IN - OUT =       6.5002E-03

 PERCENT DISCREPANCY =           0.00     PERCENT DISCREPANCY =           0.00




         TIME SUMMARY AT END OF TIME STEP    1 IN STRESS PERIOD  363
                    SECONDS     MINUTES      HOURS       DAYS        YEARS
                    -----------------------------------------------------------
   TIME STEP LENGTH  86400.      1440.0      24.000      1.0000     2.73785E-03
 STRESS PERIOD TIME  86400.      1440.0      24.000      1.0000     2.73785E-03
         TOTAL TIME 3.13632E+07 5.22720E+05  8712.0      363.00     0.99384    


end timestep


start timestep kper="364" kstp="1" mode="normal"

 #Stressperiod Save Options

 BEGIN READING OUTPUT CONTROL FOR STRESS PERIOD 364
      ALL TIME STEPS WILL BE SAVED
      ALL TIME STEPS WILL BE SAVED

 END READING OUTPUT CONTROL FOR STRESS PERIOD 364


 PROCESSING STORAGE PERIOD DATA
 END PROCESSING STORAGE PERIOD DATA


 STRESS PERIOD 364 IS TRANSIENT


 REUSING WELS FROM LAST STRESS PERIOD

 REUSING DRNS FROM LAST STRESS PERIOD

 REUSING RIVS FROM LAST STRESS PERIOD

 REUSING RIVS FROM LAST STRESS PERIOD

 REUSING RCHS FROM LAST STRESS PERIOD
 UBDSV06 SAVING              DRN IN MODEL GWF_1            PACKAGE GWF_1           CONNECTED TO MODEL GWF_1            PACKAGE DRN_SYS1         ON UNIT   1019 AT TIME STEP      1, STRESS PERIOD    364
 UBDSV06 SAVING              RIV IN MODEL GWF_1            PACKAGE GWF_1           CONNECTED TO MODEL GWF_1            PACKAGE RIV_SYS1         ON UNIT   1019 AT TIME STEP      1, STRESS PERIOD    364
 UBDSV06 SAVING              RIV IN MODEL GWF_1            PACKAGE GWF_1           CONNECTED TO MODEL GWF_1            PACKAGE RIV_SYS2         ON UNIT   1019 AT TIME STEP      1, STRESS PERIOD    364

 HEAD WILL BE SAVED ON UNIT 1018 AT END OF TIME STEP    1, STRESS PERIOD  364


  VOLUME BUDGET FOR ENTIRE MODEL AT END OF TIME STEP    1, STRESS PERIOD 364
  ---------------------------------------------------------------------------------------------------

     CUMULATIVE VOLUME      L**3       RATES FOR THIS TIME STEP      L**3/T          PACKAGE NAME    
     ------------------                 ------------------------                     ----------------

           IN:                                      IN:
           ---                                      ---
              STO-SS =       4.0344E+13                STO-SS =111125451540.0958     STORAGE                          
                 WEL =           0.0000                   WEL =           0.0000     RIV_CORR                         
                 DRN =           0.0000                   DRN =           0.0000     DRN_SYS1                         
                 RIV =    14030531.4158                   RIV =       38429.1738     RIV_SYS1                         
                 RIV =      218400.0000                   RIV =         600.0000     RIV_SYS2                         
                 RCH =    26882905.4070                   RCH =           1.9399     RCH_MSW                          

            TOTAL IN =       4.0345E+13              TOTAL IN =111125490571.2096

          OUT:                                     OUT:
          ----                                     ----
              STO-SS =           0.0000                STO-SS =           0.0000     STORAGE                          
                 WEL =       4.0345E+13                   WEL =111125490570.5333     RIV_CORR                         
                 DRN =           0.0000                   DRN =           0.0000     DRN_SYS1                         
                 RIV =           0.0000                   RIV =           0.0000     RIV_SYS1                         
                 RIV =           0.0000                   RIV =           0.0000     RIV_SYS2                         
                 RCH =        2267.2075                   RCH =           0.6709     RCH_MSW                          

           TOTAL OUT =       4.0345E+13             TOTAL OUT =111125490571.2042

            IN - OUT =           0.8906              IN - OUT =       5.3864E-03

 PERCENT DISCREPANCY =           0.00     PERCENT DISCREPANCY =           0.00




         TIME SUMMARY AT END OF TIME STEP    1 IN STRESS PERIOD  364
                    SECONDS     MINUTES      HOURS       DAYS        YEARS
                    -----------------------------------------------------------
   TIME STEP LENGTH  86400.      1440.0      24.000      1.0000     2.73785E-03
 STRESS PERIOD TIME  86400.      1440.0      24.000      1.0000     2.73785E-03
         TOTAL TIME 3.14496E+07 5.24160E+05  8736.0      364.00     0.99658    


end timestep


start timestep kper="365" kstp="1" mode="normal"

 #Stressperiod Save Options

 BEGIN READING OUTPUT CONTROL FOR STRESS PERIOD 365
      ALL TIME STEPS WILL BE SAVED
      ALL TIME STEPS WILL BE SAVED

 END READING OUTPUT CONTROL FOR STRESS PERIOD 365


 PROCESSING STORAGE PERIOD DATA
 END PROCESSING STORAGE PERIOD DATA


 STRESS PERIOD 365 IS TRANSIENT


 REUSING WELS FROM LAST STRESS PERIOD

 REUSING DRNS FROM LAST STRESS PERIOD

 REUSING RIVS FROM LAST STRESS PERIOD

 REUSING RIVS FROM LAST STRESS PERIOD

 REUSING RCHS FROM LAST STRESS PERIOD
 UBDSV06 SAVING              DRN IN MODEL GWF_1            PACKAGE GWF_1           CONNECTED TO MODEL GWF_1            PACKAGE DRN_SYS1         ON UNIT   1019 AT TIME STEP      1, STRESS PERIOD    365
 UBDSV06 SAVING              RIV IN MODEL GWF_1            PACKAGE GWF_1           CONNECTED TO MODEL GWF_1            PACKAGE RIV_SYS1         ON UNIT   1019 AT TIME STEP      1, STRESS PERIOD    365
 UBDSV06 SAVING              RIV IN MODEL GWF_1            PACKAGE GWF_1           CONNECTED TO MODEL GWF_1            PACKAGE RIV_SYS2         ON UNIT   1019 AT TIME STEP      1, STRESS PERIOD    365

 HEAD WILL BE SAVED ON UNIT 1018 AT END OF TIME STEP    1, STRESS PERIOD  365


  VOLUME BUDGET FOR ENTIRE MODEL AT END OF TIME STEP    1, STRESS PERIOD 365
  ---------------------------------------------------------------------------------------------------

     CUMULATIVE VOLUME      L**3       RATES FOR THIS TIME STEP      L**3/T          PACKAGE NAME    
     ------------------                 ------------------------                     ----------------

           IN:                                      IN:
           ---                                      ---
              STO-SS =       4.0456E+13                STO-SS =111123198657.7447     STORAGE                          
                 WEL =           0.0000                   WEL =           0.0000     RIV_CORR                         
                 DRN =           0.0000                   DRN =           0.0000     DRN_SYS1                         
                 RIV =    14068960.2382                   RIV =       38428.8225     RIV_SYS1                         
                 RIV =      219000.0000                   RIV =         600.0000     RIV_SYS2                         
                 RCH =    26882907.9915                   RCH =           2.5845     RCH_MSW                          

            TOTAL IN =       4.0456E+13              TOTAL IN =111123237689.1517

          OUT:                                     OUT:
          ----                                     ----
              STO-SS =           0.0000                STO-SS =           0.0000     STORAGE                          
                 WEL =       4.0456E+13                   WEL =111123237688.4432     RIV_CORR                         
                 DRN =           0.0000                   DRN =           0.0000     DRN_SYS1                         
                 RIV =           0.0000                   RIV =           0.0000     RIV_SYS1                         
                 RIV =           0.0000                   RIV =           0.0000     RIV_SYS2                         
                 RCH =        2267.9104                   RCH =           0.7030     RCH_MSW                          

           TOTAL OUT =       4.0456E+13             TOTAL OUT =111123237689.1462

            IN - OUT =           0.8906              IN - OUT =       5.5084E-03

 PERCENT DISCREPANCY =           0.00     PERCENT DISCREPANCY =           0.00




         TIME SUMMARY AT END OF TIME STEP    1 IN STRESS PERIOD  365
                    SECONDS     MINUTES      HOURS       DAYS        YEARS
                    -----------------------------------------------------------
   TIME STEP LENGTH  86400.      1440.0      24.000      1.0000     2.73785E-03
 STRESS PERIOD TIME  86400.      1440.0      24.000      1.0000     2.73785E-03
         TOTAL TIME 3.15360E+07 5.25600E+05  8760.0      365.00     0.99932    


end timestep

