                                   MODFLOW 6
                U.S. GEOLOGICAL SURVEY MODULAR HYDROLOGIC MODEL
                          GROUNDWATER FLOW MODEL (GWF)
                            VERSION 6.3.0 03/04/2022

   MODFLOW 6 compiled Jun 27 2022 11:13:48 with Intel(R) Fortran Intel(R) 64
   Compiler Classic for applications running on Intel(R) 64, Version 2021.2.0
                             Build 20210228_000000

This software has been approved for release by the U.S. Geological 
Survey (USGS). Although the software has been subjected to rigorous 
review, the USGS reserves the right to update the software as needed 
pursuant to further analysis and review. No warranty, expressed or 
implied, is made by the USGS or the U.S. Government as to the 
functionality of the software and related material nor shall the 
fact of release constitute any such warranty. Furthermore, the 
software is released on condition that neither the USGS nor the U.S. 
Government shall be held liable for any damages resulting from its 
authorized or unauthorized use. Also refer to the USGS Water 
Resources Software User Rights Notice for complete use, copyright, 
and distribution information.


As a work of the United States Government, this USGS product is 
in the public domain within the United States. You can copy, 
modify, distribute, and perform the work, even for commercial 
purposes, all without asking permission. Additionally, USGS 
waives copyright and related rights in the work worldwide 
through CC0 1.0 Universal Public Domain Dedication 
(https://creativecommons.org/publicdomain/zero/1.0/).

The following GNU Lesser General Public License (LGPL) libraries
are used in this USGS product:

    SPARSKIT version 2.0
      ilut, luson, and qsplit 
      (https://www-users.cse.umn.edu/~saad/software/SPARSKIT/)

    RCM - Reverse Cuthill McKee Ordering
      (https://people.math.sc.edu/Burkardt/f_src/rcm/rcm.html)

    BLAS - Basic Linear Algebra Subprograms Level 1
      (https://people.math.sc.edu/Burkardt/f_src/blas1_d/blas1_d.html)

    SPARSEKIT - Sparse Matrix Utility Package
      amux, dperm, dvperm, rperm, and cperm
      (https://people.sc.fsu.edu/~jburkardt/f77_src/sparsekit/sparsekit.html)

The following BSD-3 License libraries are used in this USGS product:

    Modern Fortran DAG Library
      Copyright (c) 2018, Jacob Williams
      All rights reserved.
      (https://github.com/jacobwilliams/daglib)

MODFLOW 6 compiler options: /Isrc\libmf6core.a.p /Isrc /I..\src
/Isrc\libmf6_external.a.p /MTd /nologo /warn:general /warn:truncated_source
/stand:f08 /Zi /traceback /O2 /fpe:0 /fpp /Qdiag-disable:7416
/Qdiag-disable:7025 /Qdiag-disable:5268
/Fdsrc\libmf6core.a.p\Utilities_compilerversion.F90.pdb
/module:src\libmf6core.a.p
/Fosrc/libmf6core.a.p/Utilities_compilerversion.F90.obj /c

System command used to initiate simulation:
c:\werkmap\test_freatisch\Testmodel-plateaurand\Testmodel-plateaurand\EXE\iMOD_coupler\imodc.exe      tmodel_mf6\T-MODEL-F\imod_coupler.toml

MODFLOW was compiled using uniform precision.

Real Variables
  KIND: 8
  TINY (smallest non-zero value):    2.225074-308
  HUGE (largest value):    1.797693+308
  PRECISION: 15
  BIT SIZE: 64

Integer Variables
  KIND: 4
  HUGE (largest value): 2147483647
  BIT SIZE: 32

Long Integer Variables
  KIND: 8
  HUGE (largest value): 9223372036854775807
  BIT SIZE: 64

Logical Variables
  KIND: 4
  BIT SIZE: 32
 

 OPENED .\GWF_1\MODELINPUT\T-MODEL-F.DIS6
 FILE TYPE:DIS6                   UNIT 1005   STATUS:OLD                 
 FORMAT:FORMATTED              ACCESS:SEQUENTIAL          
 ACTION:READ                


 OPENED .\GWF_1\MODELINPUT\T-MODEL-F.IC6
 FILE TYPE:IC6                    UNIT 1006   STATUS:OLD                 
 FORMAT:FORMATTED              ACCESS:SEQUENTIAL          
 ACTION:READ                


 OPENED .\GWF_1\MODELINPUT\T-MODEL-F.NPF6
 FILE TYPE:NPF6                   UNIT 1007   STATUS:OLD                 
 FORMAT:FORMATTED              ACCESS:SEQUENTIAL          
 ACTION:READ                


 OPENED .\GWF_1\MODELINPUT\T-MODEL-F.OC6
 FILE TYPE:OC6                    UNIT 1008   STATUS:OLD                 
 FORMAT:FORMATTED              ACCESS:SEQUENTIAL          
 ACTION:READ                


 OPENED .\GWF_1\MODELINPUT\T-MODEL-F.STO6
 FILE TYPE:STO6                   UNIT 1009   STATUS:OLD                 
 FORMAT:FORMATTED              ACCESS:SEQUENTIAL          
 ACTION:READ                


 OPENED .\GWF_1\MODELINPUT\T-MODEL-F_SYS1.DRN6
 FILE TYPE:DRN6                   UNIT 1010   STATUS:OLD                 
 FORMAT:FORMATTED              ACCESS:SEQUENTIAL          
 ACTION:READ                


 OPENED .\GWF_1\MODELINPUT\T-MODEL-F_SYS1.RIV6
 FILE TYPE:RIV6                   UNIT 1011   STATUS:OLD                 
 FORMAT:FORMATTED              ACCESS:SEQUENTIAL          
 ACTION:READ                


 OPENED .\GWF_1\MODELINPUT\T-MODEL-F_SYS2.RIV6
 FILE TYPE:RIV6                   UNIT 1012   STATUS:OLD                 
 FORMAT:FORMATTED              ACCESS:SEQUENTIAL          
 ACTION:READ                


 OPENED .\GWF_1\MODELINPUT\MSW.RCH6
 FILE TYPE:RCH6                   UNIT 1013   STATUS:OLD                 
 FORMAT:FORMATTED              ACCESS:SEQUENTIAL          
 ACTION:READ                


 DIS -- STRUCTURED GRID DISCRETIZATION PACKAGE, VERSION 2 : 3/27/2014 - INPUT READ FROM UNIT 1005


 # DIS6 File Generated by iMOD [V5_4 X64 Optimized]
 PROCESSING DISCRETIZATION OPTIONS
    MODEL LENGTH UNIT IS METERS
    XORIGIN SPECIFIED AS     0.00000000000000    
    YORIGIN SPECIFIED AS     0.00000000000000    
    ANGROT SPECIFIED AS     0.00000000000000    
 END OF DISCRETIZATION OPTIONS
 #Model Dimensions
 PROCESSING DISCRETIZATION DIMENSIONS
    NLAY =       1
    NROW =      11
    NCOL =      10
 END OF DISCRETIZATION DIMENSIONS
 #Cell Sizes
 PROCESSING GRIDDATA

                     DELR =   100.0000    

                     DELC =   100.0000    
 #Vertical Configuration

 TOP ELEVATION OF LAYER 1 =   0.000000    

   MODEL LAYER BOTTOM EL. =  -10.00000     FOR LAYER 1
 #Boundary Settings

 OPENED .\GWF_1\MODELINPUT\DIS6\IBOUND_L1.ARR
 FILE TYPE:OPEN/CLOSE   UNIT 1015   STATUS:OLD                 
 FORMAT:FORMATTED              ACCESS:SEQUENTIAL          
 ACTION:READ                

 END PROCESSING GRIDDATA

 NPF -- NODE PROPERTY FLOW PACKAGE, VERSION 1, 3/30/2015 INPUT READ FROM UNIT 1007


 # NPF6 File Generated by iMOD [V5_4 X64 Optimized]
 #General Options
 PROCESSING NPF OPTIONS
    ALTERNATIVE CELL AVERAGING HAS BEEN SET TO AMT-HMK
    CELL AVERAGING METHOD HAS BEEN SET TO: AMT-HMK                                                                                                                                                                                                                                                                                                     
 END OF NPF OPTIONS

 DRN   -- DRN PACKAGE, VERSION 8, 2/22/2014 INPUT READ FROM UNIT 1010
 # DRN6 File Generated by iMOD [V5_4 X64 Optimized]
 #General Options

 PROCESSING DRN OPTIONS
    FLOWS WILL BE SAVED TO BUDGET FILE SPECIFIED IN OUTPUT CONTROL
 END OF DRN OPTIONS
 #General Dimensions

 PROCESSING DRN DIMENSIONS
    MAXBOUND =       2
 END OF DRN DIMENSIONS

 RIV   -- RIV PACKAGE, VERSION 8, 2/22/2014 INPUT READ FROM UNIT 1011
 # RIV6 File Generated by iMOD [V5_4 X64 Optimized]
 #General Options

 PROCESSING RIV OPTIONS
    FLOWS WILL BE SAVED TO BUDGET FILE SPECIFIED IN OUTPUT CONTROL
 END OF RIV OPTIONS
 #General Dimensions

 PROCESSING RIV DIMENSIONS
    MAXBOUND =      55
 END OF RIV DIMENSIONS

 RIV   -- RIV PACKAGE, VERSION 8, 2/22/2014 INPUT READ FROM UNIT 1012
 # RIV6 File Generated by iMOD [V5_4 X64 Optimized]
 #General Options

 PROCESSING RIV OPTIONS
    FLOWS WILL BE SAVED TO BUDGET FILE SPECIFIED IN OUTPUT CONTROL
 END OF RIV OPTIONS
 #General Dimensions

 PROCESSING RIV DIMENSIONS
    MAXBOUND =       3
 END OF RIV DIMENSIONS

 RCH   -- RCH PACKAGE, VERSION 8, 2/22/2014 INPUT READ FROM UNIT 1013
 # RCH6 File Generated by iMOD [V5_4 X64 Optimized]
 #General Options

 PROCESSING RCH OPTIONS
    FLOWS WILL BE SAVED TO BUDGET FILE SPECIFIED IN OUTPUT CONTROL
 END OF RCH OPTIONS
 #General Dimensions

 PROCESSING RCH DIMENSIONS
    MAXBOUND =     110
 END OF RCH DIMENSIONS

 IC -- INITIAL CONDITIONS PACKAGE, VERSION 8, 3/28/2015 INPUT READ FROM UNIT 1006
 # IC6 File Generated by iMOD [V5_4 X64 Optimized]
 #General Options
 PROCESSING IC OPTIONS
 END OF IC OPTIONS
 #Initial Head Data
 PROCESSING GRIDDATA

     INITIAL HEAD =   10.00000     FOR LAYER 1
 END PROCESSING GRIDDATA
 #Geology Options
 PROCESSING GRIDDATA

                ICELLTYPE = 0 FOR LAYER 1

                        K =   100.0000     FOR LAYER 1

                      K33 =   1.000000     FOR LAYER 1
 K22 not provided.  Assuming K22 = K.
 END PROCESSING GRIDDATA

 STO -- STORAGE PACKAGE, VERSION 1, 5/19/2014 INPUT READ FROM UNIT 1009


 # STO6 File Generated by iMOD [V5_4 X64 Optimized]
 #General Options
 PROCESSING STORAGE OPTIONS
    STORAGECOEFFICIENT OPTION:
 Read storage coefficient rather than specific storage
 END OF STORAGE OPTIONS
 #Geology Options
 PROCESSING GRIDDATA

                 ICONVERT = 0 FOR LAYER 1

         SPECIFIC STORAGE =  0.1500000     FOR LAYER 1
 END PROCESSING GRIDDATA
    BINARY GRID INFORMATION WILL BE WRITTEN TO:
      UNIT NUMBER: 1016
      FILE NAME: c:\src\GW-sobek\workspace\lumbricustests\t-model_conversie_mf6\tmodel_mf6\T-MODEL-F\MODFLOW6\GWF_1\MODELINPUT\T-MODEL-F.DIS6.grb

 OPENED c:\src\GW-sobek\workspace\lumbricustests\t-model_conversie_mf6\tmodel_mf6\T-MODEL-F\MODFLOW6\GWF_1\MODELINPUT\T-MODEL-F.DIS6.grb
 FILE TYPE:DATA(BINARY)   UNIT 1016   STATUS:REPLACE             
 FORMAT:UNFORMATTED            ACCESS:STREAM              
 ACTION:READWRITE           

      THE LAST TIME STEP WILL BE PRINTED
      THE LAST TIME STEP WILL BE PRINTED
 # OC6 File Generated by iMOD [V5_4 X64 Optimized]
 #General Options

 PROCESSING OC OPTIONS

    HEAD INFORMATION WILL BE WRITTEN TO:
      UNIT NUMBER: 1017
      FILE NAME: .\GWF_1\MODELOUTPUT\HEAD\HEAD.HED

 OPENED .\GWF_1\MODELOUTPUT\HEAD\HEAD.HED
 FILE TYPE:DATA(BINARY)   UNIT 1017   STATUS:REPLACE             
 FORMAT:UNFORMATTED            ACCESS:STREAM              
 ACTION:READWRITE           

    BUDGET INFORMATION WILL BE WRITTEN TO:
      UNIT NUMBER: 1018
      FILE NAME: .\GWF_1\MODELOUTPUT\BUDGET\BUDGET.CBC

 OPENED .\GWF_1\MODELOUTPUT\BUDGET\BUDGET.CBC
 FILE TYPE:DATA(BINARY)   UNIT 1018   STATUS:REPLACE             
 FORMAT:UNFORMATTED            ACCESS:STREAM              
 ACTION:READWRITE           

 END OF OC OPTIONS

start timestep kper="1" kstp="1" mode="normal"

 #Stressperiod Save Options

 BEGIN READING OUTPUT CONTROL FOR STRESS PERIOD 1
      ALL TIME STEPS WILL BE SAVED
      ALL TIME STEPS WILL BE SAVED

 END READING OUTPUT CONTROL FOR STRESS PERIOD 1
 #Time Storage Options


 PROCESSING STORAGE PERIOD DATA
 END PROCESSING STORAGE PERIOD DATA


 STRESS PERIOD 1 IS TRANSIENT

 UBDSV06 SAVING              DRN IN MODEL GWF_1            PACKAGE GWF_1           CONNECTED TO MODEL GWF_1            PACKAGE DRN_SYS1         ON UNIT   1018 AT TIME STEP      1, STRESS PERIOD      1
 UBDSV06 SAVING              RIV IN MODEL GWF_1            PACKAGE GWF_1           CONNECTED TO MODEL GWF_1            PACKAGE RIV_SYS1         ON UNIT   1018 AT TIME STEP      1, STRESS PERIOD      1
 UBDSV06 SAVING              RIV IN MODEL GWF_1            PACKAGE GWF_1           CONNECTED TO MODEL GWF_1            PACKAGE RIV_SYS2         ON UNIT   1018 AT TIME STEP      1, STRESS PERIOD      1
 UBDSV06 SAVING              RCH IN MODEL GWF_1            PACKAGE GWF_1           CONNECTED TO MODEL GWF_1            PACKAGE RCH_MSW          ON UNIT   1018 AT TIME STEP      1, STRESS PERIOD      1

 HEAD WILL BE SAVED ON UNIT 1017 AT END OF TIME STEP    1, STRESS PERIOD    1


  VOLUME BUDGET FOR ENTIRE MODEL AT END OF TIME STEP    1, STRESS PERIOD   1
  ---------------------------------------------------------------------------------------------------

     CUMULATIVE VOLUME      L**3       RATES FOR THIS TIME STEP      L**3/T          PACKAGE NAME    
     ------------------                 ------------------------                     ----------------

           IN:                                      IN:
           ---                                      ---
              STO-SS =       25257.2159                STO-SS =       25257.2159     STORAGE                          
                 DRN =           0.0000                   DRN =           0.0000     DRN_SYS1                         
                 RIV =           0.0000                   RIV =           0.0000     RIV_SYS1                         
                 RIV =           0.0000                   RIV =           0.0000     RIV_SYS2                         
                 RCH =           0.0000                   RCH =           0.0000     RCH_MSW                          

            TOTAL IN =       25257.2159              TOTAL IN =       25257.2159

          OUT:                                     OUT:
          ----                                     ----
              STO-SS =           0.0000                STO-SS =           0.0000     STORAGE                          
                 DRN =         285.1699                   DRN =         285.1699     DRN_SYS1                         
                 RIV =       21723.7127                   RIV =       21723.7127     RIV_SYS1                         
                 RIV =         830.4297                   RIV =         830.4297     RIV_SYS2                         
                 RCH =        2417.6120                   RCH =        2417.6120     RCH_MSW                          

           TOTAL OUT =       25256.9243             TOTAL OUT =       25256.9243

            IN - OUT =           0.2916              IN - OUT =           0.2916

 PERCENT DISCREPANCY =           0.00     PERCENT DISCREPANCY =           0.00




         TIME SUMMARY AT END OF TIME STEP    1 IN STRESS PERIOD    1
                    SECONDS     MINUTES      HOURS       DAYS        YEARS
                    -----------------------------------------------------------
   TIME STEP LENGTH  86400.      1440.0      24.000      1.0000     2.73785E-03
 STRESS PERIOD TIME  86400.      1440.0      24.000      1.0000     2.73785E-03
         TOTAL TIME  86400.      1440.0      24.000      1.0000     2.73785E-03


end timestep


start timestep kper="2" kstp="1" mode="normal"

 #Stressperiod Save Options

 BEGIN READING OUTPUT CONTROL FOR STRESS PERIOD 2
      ALL TIME STEPS WILL BE SAVED
      ALL TIME STEPS WILL BE SAVED

 END READING OUTPUT CONTROL FOR STRESS PERIOD 2


 PROCESSING STORAGE PERIOD DATA
 END PROCESSING STORAGE PERIOD DATA


 STRESS PERIOD 2 IS TRANSIENT


 REUSING DRNS FROM LAST STRESS PERIOD

 REUSING RIVS FROM LAST STRESS PERIOD

 REUSING RIVS FROM LAST STRESS PERIOD

 REUSING RCHS FROM LAST STRESS PERIOD
 UBDSV06 SAVING              DRN IN MODEL GWF_1            PACKAGE GWF_1           CONNECTED TO MODEL GWF_1            PACKAGE DRN_SYS1         ON UNIT   1018 AT TIME STEP      1, STRESS PERIOD      2
 UBDSV06 SAVING              RIV IN MODEL GWF_1            PACKAGE GWF_1           CONNECTED TO MODEL GWF_1            PACKAGE RIV_SYS1         ON UNIT   1018 AT TIME STEP      1, STRESS PERIOD      2
 UBDSV06 SAVING              RIV IN MODEL GWF_1            PACKAGE GWF_1           CONNECTED TO MODEL GWF_1            PACKAGE RIV_SYS2         ON UNIT   1018 AT TIME STEP      1, STRESS PERIOD      2
 UBDSV06 SAVING              RCH IN MODEL GWF_1            PACKAGE GWF_1           CONNECTED TO MODEL GWF_1            PACKAGE RCH_MSW          ON UNIT   1018 AT TIME STEP      1, STRESS PERIOD      2

 HEAD WILL BE SAVED ON UNIT 1017 AT END OF TIME STEP    1, STRESS PERIOD    2


  VOLUME BUDGET FOR ENTIRE MODEL AT END OF TIME STEP    1, STRESS PERIOD   2
  ---------------------------------------------------------------------------------------------------

     CUMULATIVE VOLUME      L**3       RATES FOR THIS TIME STEP      L**3/T          PACKAGE NAME    
     ------------------                 ------------------------                     ----------------

           IN:                                      IN:
           ---                                      ---
              STO-SS =       41561.9683                STO-SS =       16304.7524     STORAGE                          
                 DRN =           0.0000                   DRN =           0.0000     DRN_SYS1                         
                 RIV =           0.0000                   RIV =           0.0000     RIV_SYS1                         
                 RIV =           0.0000                   RIV =           0.0000     RIV_SYS2                         
                 RCH =         626.5570                   RCH =         626.5570     RCH_MSW                          

            TOTAL IN =       42188.5254              TOTAL IN =       16931.3094

          OUT:                                     OUT:
          ----                                     ----
              STO-SS =           0.0000                STO-SS =           0.0000     STORAGE                          
                 DRN =         556.4135                   DRN =         271.2436     DRN_SYS1                         
                 RIV =       37065.8747                   RIV =       15342.1619     RIV_SYS1                         
                 RIV =        1606.4200                   RIV =         775.9903     RIV_SYS2                         
                 RCH =        2959.6429                   RCH =         542.0309     RCH_MSW                          

           TOTAL OUT =       42188.3510             TOTAL OUT =       16931.4268

            IN - OUT =           0.1743              IN - OUT =          -0.1173

 PERCENT DISCREPANCY =           0.00     PERCENT DISCREPANCY =          -0.00




         TIME SUMMARY AT END OF TIME STEP    1 IN STRESS PERIOD    2
                    SECONDS     MINUTES      HOURS       DAYS        YEARS
                    -----------------------------------------------------------
   TIME STEP LENGTH  86400.      1440.0      24.000      1.0000     2.73785E-03
 STRESS PERIOD TIME  86400.      1440.0      24.000      1.0000     2.73785E-03
         TOTAL TIME 1.72800E+05  2880.0      48.000      2.0000     5.47570E-03


end timestep


start timestep kper="3" kstp="1" mode="normal"

 #Stressperiod Save Options

 BEGIN READING OUTPUT CONTROL FOR STRESS PERIOD 3
      ALL TIME STEPS WILL BE SAVED
      ALL TIME STEPS WILL BE SAVED

 END READING OUTPUT CONTROL FOR STRESS PERIOD 3


 PROCESSING STORAGE PERIOD DATA
 END PROCESSING STORAGE PERIOD DATA


 STRESS PERIOD 3 IS TRANSIENT


 REUSING DRNS FROM LAST STRESS PERIOD

 REUSING RIVS FROM LAST STRESS PERIOD

 REUSING RIVS FROM LAST STRESS PERIOD

 REUSING RCHS FROM LAST STRESS PERIOD
 UBDSV06 SAVING              DRN IN MODEL GWF_1            PACKAGE GWF_1           CONNECTED TO MODEL GWF_1            PACKAGE DRN_SYS1         ON UNIT   1018 AT TIME STEP      1, STRESS PERIOD      3
 UBDSV06 SAVING              RIV IN MODEL GWF_1            PACKAGE GWF_1           CONNECTED TO MODEL GWF_1            PACKAGE RIV_SYS1         ON UNIT   1018 AT TIME STEP      1, STRESS PERIOD      3
 UBDSV06 SAVING              RIV IN MODEL GWF_1            PACKAGE GWF_1           CONNECTED TO MODEL GWF_1            PACKAGE RIV_SYS2         ON UNIT   1018 AT TIME STEP      1, STRESS PERIOD      3
 UBDSV06 SAVING              RCH IN MODEL GWF_1            PACKAGE GWF_1           CONNECTED TO MODEL GWF_1            PACKAGE RCH_MSW          ON UNIT   1018 AT TIME STEP      1, STRESS PERIOD      3

 HEAD WILL BE SAVED ON UNIT 1017 AT END OF TIME STEP    1, STRESS PERIOD    3


  VOLUME BUDGET FOR ENTIRE MODEL AT END OF TIME STEP    1, STRESS PERIOD   3
  ---------------------------------------------------------------------------------------------------

     CUMULATIVE VOLUME      L**3       RATES FOR THIS TIME STEP      L**3/T          PACKAGE NAME    
     ------------------                 ------------------------                     ----------------

           IN:                                      IN:
           ---                                      ---
              STO-SS =       53231.5632                STO-SS =       11669.5949     STORAGE                          
                 DRN =           0.0000                   DRN =           0.0000     DRN_SYS1                         
                 RIV =           0.0000                   RIV =           0.0000     RIV_SYS1                         
                 RIV =           0.0000                   RIV =           0.0000     RIV_SYS2                         
                 RCH =        2412.6417                   RCH =        1786.0847     RCH_MSW                          

            TOTAL IN =       55644.2049              TOTAL IN =       13455.6796

          OUT:                                     OUT:
          ----                                     ----
              STO-SS =           0.0000                STO-SS =           0.0000     STORAGE                          
                 DRN =         814.3309                   DRN =         257.9173     DRN_SYS1                         
                 RIV =       49303.2293                   RIV =       12237.3547     RIV_SYS1                         
                 RIV =        2333.9219                   RIV =         727.5019     RIV_SYS2                         
                 RCH =        3192.5818                   RCH =         232.9389     RCH_MSW                          

           TOTAL OUT =       55644.0639             TOTAL OUT =       13455.7128

            IN - OUT =           0.1411              IN - OUT =      -3.3266E-02

 PERCENT DISCREPANCY =           0.00     PERCENT DISCREPANCY =          -0.00




         TIME SUMMARY AT END OF TIME STEP    1 IN STRESS PERIOD    3
                    SECONDS     MINUTES      HOURS       DAYS        YEARS
                    -----------------------------------------------------------
   TIME STEP LENGTH  86400.      1440.0      24.000      1.0000     2.73785E-03
 STRESS PERIOD TIME  86400.      1440.0      24.000      1.0000     2.73785E-03
         TOTAL TIME 2.59200E+05  4320.0      72.000      3.0000     8.21355E-03


end timestep


start timestep kper="4" kstp="1" mode="normal"

 #Stressperiod Save Options

 BEGIN READING OUTPUT CONTROL FOR STRESS PERIOD 4
      ALL TIME STEPS WILL BE SAVED
      ALL TIME STEPS WILL BE SAVED

 END READING OUTPUT CONTROL FOR STRESS PERIOD 4


 PROCESSING STORAGE PERIOD DATA
 END PROCESSING STORAGE PERIOD DATA


 STRESS PERIOD 4 IS TRANSIENT


 REUSING DRNS FROM LAST STRESS PERIOD

 REUSING RIVS FROM LAST STRESS PERIOD

 REUSING RIVS FROM LAST STRESS PERIOD

 REUSING RCHS FROM LAST STRESS PERIOD
 UBDSV06 SAVING              DRN IN MODEL GWF_1            PACKAGE GWF_1           CONNECTED TO MODEL GWF_1            PACKAGE DRN_SYS1         ON UNIT   1018 AT TIME STEP      1, STRESS PERIOD      4
 UBDSV06 SAVING              RIV IN MODEL GWF_1            PACKAGE GWF_1           CONNECTED TO MODEL GWF_1            PACKAGE RIV_SYS1         ON UNIT   1018 AT TIME STEP      1, STRESS PERIOD      4
 UBDSV06 SAVING              RIV IN MODEL GWF_1            PACKAGE GWF_1           CONNECTED TO MODEL GWF_1            PACKAGE RIV_SYS2         ON UNIT   1018 AT TIME STEP      1, STRESS PERIOD      4
 UBDSV06 SAVING              RCH IN MODEL GWF_1            PACKAGE GWF_1           CONNECTED TO MODEL GWF_1            PACKAGE RCH_MSW          ON UNIT   1018 AT TIME STEP      1, STRESS PERIOD      4

 HEAD WILL BE SAVED ON UNIT 1017 AT END OF TIME STEP    1, STRESS PERIOD    4


  VOLUME BUDGET FOR ENTIRE MODEL AT END OF TIME STEP    1, STRESS PERIOD   4
  ---------------------------------------------------------------------------------------------------

     CUMULATIVE VOLUME      L**3       RATES FOR THIS TIME STEP      L**3/T          PACKAGE NAME    
     ------------------                 ------------------------                     ----------------

           IN:                                      IN:
           ---                                      ---
              STO-SS =       62756.3540                STO-SS =        9524.7908     STORAGE                          
                 DRN =           0.0000                   DRN =           0.0000     DRN_SYS1                         
                 RIV =           0.0000                   RIV =           0.0000     RIV_SYS1                         
                 RIV =           0.0000                   RIV =           0.0000     RIV_SYS2                         
                 RCH =        4385.2485                   RCH =        1972.6068     RCH_MSW                          

            TOTAL IN =       67141.6025              TOTAL IN =       11497.3976

          OUT:                                     OUT:
          ----                                     ----
              STO-SS =           0.0000                STO-SS =           0.0000     STORAGE                          
                 DRN =        1059.8731                   DRN =         245.5422     DRN_SYS1                         
                 RIV =       59756.2885                   RIV =       10453.0591     RIV_SYS1                         
                 RIV =        3018.0861                   RIV =         684.1642     RIV_SYS2                         
                 RCH =        3307.2196                   RCH =         114.6378     RCH_MSW                          

           TOTAL OUT =       67141.4672             TOTAL OUT =       11497.4034

            IN - OUT =           0.1353              IN - OUT =      -5.7697E-03

 PERCENT DISCREPANCY =           0.00     PERCENT DISCREPANCY =          -0.00




         TIME SUMMARY AT END OF TIME STEP    1 IN STRESS PERIOD    4
                    SECONDS     MINUTES      HOURS       DAYS        YEARS
                    -----------------------------------------------------------
   TIME STEP LENGTH  86400.      1440.0      24.000      1.0000     2.73785E-03
 STRESS PERIOD TIME  86400.      1440.0      24.000      1.0000     2.73785E-03
         TOTAL TIME 3.45600E+05  5760.0      96.000      4.0000     1.09514E-02


end timestep


start timestep kper="5" kstp="1" mode="normal"

 #Stressperiod Save Options

 BEGIN READING OUTPUT CONTROL FOR STRESS PERIOD 5
      ALL TIME STEPS WILL BE SAVED
      ALL TIME STEPS WILL BE SAVED

 END READING OUTPUT CONTROL FOR STRESS PERIOD 5


 PROCESSING STORAGE PERIOD DATA
 END PROCESSING STORAGE PERIOD DATA


 STRESS PERIOD 5 IS TRANSIENT


 REUSING DRNS FROM LAST STRESS PERIOD

 REUSING RIVS FROM LAST STRESS PERIOD

 REUSING RIVS FROM LAST STRESS PERIOD

 REUSING RCHS FROM LAST STRESS PERIOD
 UBDSV06 SAVING              DRN IN MODEL GWF_1            PACKAGE GWF_1           CONNECTED TO MODEL GWF_1            PACKAGE DRN_SYS1         ON UNIT   1018 AT TIME STEP      1, STRESS PERIOD      5
 UBDSV06 SAVING              RIV IN MODEL GWF_1            PACKAGE GWF_1           CONNECTED TO MODEL GWF_1            PACKAGE RIV_SYS1         ON UNIT   1018 AT TIME STEP      1, STRESS PERIOD      5
 UBDSV06 SAVING              RIV IN MODEL GWF_1            PACKAGE GWF_1           CONNECTED TO MODEL GWF_1            PACKAGE RIV_SYS2         ON UNIT   1018 AT TIME STEP      1, STRESS PERIOD      5
 UBDSV06 SAVING              RCH IN MODEL GWF_1            PACKAGE GWF_1           CONNECTED TO MODEL GWF_1            PACKAGE RCH_MSW          ON UNIT   1018 AT TIME STEP      1, STRESS PERIOD      5

 HEAD WILL BE SAVED ON UNIT 1017 AT END OF TIME STEP    1, STRESS PERIOD    5


  VOLUME BUDGET FOR ENTIRE MODEL AT END OF TIME STEP    1, STRESS PERIOD   5
  ---------------------------------------------------------------------------------------------------

     CUMULATIVE VOLUME      L**3       RATES FOR THIS TIME STEP      L**3/T          PACKAGE NAME    
     ------------------                 ------------------------                     ----------------

           IN:                                      IN:
           ---                                      ---
              STO-SS =       70132.7713                STO-SS =        7376.4173     STORAGE                          
                 DRN =           0.0000                   DRN =           0.0000     DRN_SYS1                         
                 RIV =           0.0000                   RIV =           0.0000     RIV_SYS1                         
                 RIV =           0.0000                   RIV =           0.0000     RIV_SYS2                         
                 RCH =        7284.1180                   RCH =        2898.8695     RCH_MSW                          

            TOTAL IN =       77416.8893              TOTAL IN =       10275.2868

          OUT:                                     OUT:
          ----                                     ----
              STO-SS =           0.0000                STO-SS =           0.0000     STORAGE                          
                 DRN =        1294.8984                   DRN =         235.0253     DRN_SYS1                         
                 RIV =       69104.4197                   RIV =        9348.1312     RIV_SYS1                         
                 RIV =        3664.9123                   RIV =         646.8262     RIV_SYS2                         
                 RCH =        3352.5246                   RCH =          45.3050     RCH_MSW                          

           TOTAL OUT =       77416.7550             TOTAL OUT =       10275.2878

            IN - OUT =           0.1343              IN - OUT =      -1.0013E-03

 PERCENT DISCREPANCY =           0.00     PERCENT DISCREPANCY =          -0.00




         TIME SUMMARY AT END OF TIME STEP    1 IN STRESS PERIOD    5
                    SECONDS     MINUTES      HOURS       DAYS        YEARS
                    -----------------------------------------------------------
   TIME STEP LENGTH  86400.      1440.0      24.000      1.0000     2.73785E-03
 STRESS PERIOD TIME  86400.      1440.0      24.000      1.0000     2.73785E-03
         TOTAL TIME 4.32000E+05  7200.0      120.00      5.0000     1.36893E-02


end timestep


start timestep kper="6" kstp="1" mode="normal"

 #Stressperiod Save Options

 BEGIN READING OUTPUT CONTROL FOR STRESS PERIOD 6
      ALL TIME STEPS WILL BE SAVED
      ALL TIME STEPS WILL BE SAVED

 END READING OUTPUT CONTROL FOR STRESS PERIOD 6


 PROCESSING STORAGE PERIOD DATA
 END PROCESSING STORAGE PERIOD DATA


 STRESS PERIOD 6 IS TRANSIENT


 REUSING DRNS FROM LAST STRESS PERIOD

 REUSING RIVS FROM LAST STRESS PERIOD

 REUSING RIVS FROM LAST STRESS PERIOD

 REUSING RCHS FROM LAST STRESS PERIOD
 UBDSV06 SAVING              DRN IN MODEL GWF_1            PACKAGE GWF_1           CONNECTED TO MODEL GWF_1            PACKAGE DRN_SYS1         ON UNIT   1018 AT TIME STEP      1, STRESS PERIOD      6
 UBDSV06 SAVING              RIV IN MODEL GWF_1            PACKAGE GWF_1           CONNECTED TO MODEL GWF_1            PACKAGE RIV_SYS1         ON UNIT   1018 AT TIME STEP      1, STRESS PERIOD      6
 UBDSV06 SAVING              RIV IN MODEL GWF_1            PACKAGE GWF_1           CONNECTED TO MODEL GWF_1            PACKAGE RIV_SYS2         ON UNIT   1018 AT TIME STEP      1, STRESS PERIOD      6
 UBDSV06 SAVING              RCH IN MODEL GWF_1            PACKAGE GWF_1           CONNECTED TO MODEL GWF_1            PACKAGE RCH_MSW          ON UNIT   1018 AT TIME STEP      1, STRESS PERIOD      6

 HEAD WILL BE SAVED ON UNIT 1017 AT END OF TIME STEP    1, STRESS PERIOD    6


  VOLUME BUDGET FOR ENTIRE MODEL AT END OF TIME STEP    1, STRESS PERIOD   6
  ---------------------------------------------------------------------------------------------------

     CUMULATIVE VOLUME      L**3       RATES FOR THIS TIME STEP      L**3/T          PACKAGE NAME    
     ------------------                 ------------------------                     ----------------

           IN:                                      IN:
           ---                                      ---
              STO-SS =       76203.2825                STO-SS =        6070.5112     STORAGE                          
                 DRN =           0.0000                   DRN =           0.0000     DRN_SYS1                         
                 RIV =           0.0000                   RIV =           0.0000     RIV_SYS1                         
                 RIV =           0.0000                   RIV =           0.0000     RIV_SYS2                         
                 RCH =       10652.7892                   RCH =        3368.6711     RCH_MSW                          

            TOTAL IN =       86856.0717              TOTAL IN =        9439.1823

          OUT:                                     OUT:
          ----                                     ----
              STO-SS =           0.0000                STO-SS =           0.0000     STORAGE                          
                 DRN =        1520.8387                   DRN =         225.9403     DRN_SYS1                         
                 RIV =       77697.6999                   RIV =        8593.2802     RIV_SYS1                         
                 RIV =        4280.0016                   RIV =         615.0893     RIV_SYS2                         
                 RCH =        3357.3981                   RCH =           4.8735     RCH_MSW                          

           TOTAL OUT =       86855.9384             TOTAL OUT =        9439.1834

            IN - OUT =           0.1333              IN - OUT =      -1.0112E-03

 PERCENT DISCREPANCY =           0.00     PERCENT DISCREPANCY =          -0.00




         TIME SUMMARY AT END OF TIME STEP    1 IN STRESS PERIOD    6
                    SECONDS     MINUTES      HOURS       DAYS        YEARS
                    -----------------------------------------------------------
   TIME STEP LENGTH  86400.      1440.0      24.000      1.0000     2.73785E-03
 STRESS PERIOD TIME  86400.      1440.0      24.000      1.0000     2.73785E-03
         TOTAL TIME 5.18400E+05  8640.0      144.00      6.0000     1.64271E-02


end timestep


start timestep kper="7" kstp="1" mode="normal"

 #Stressperiod Save Options

 BEGIN READING OUTPUT CONTROL FOR STRESS PERIOD 7
      ALL TIME STEPS WILL BE SAVED
      ALL TIME STEPS WILL BE SAVED

 END READING OUTPUT CONTROL FOR STRESS PERIOD 7


 PROCESSING STORAGE PERIOD DATA
 END PROCESSING STORAGE PERIOD DATA


 STRESS PERIOD 7 IS TRANSIENT


 REUSING DRNS FROM LAST STRESS PERIOD

 REUSING RIVS FROM LAST STRESS PERIOD

 REUSING RIVS FROM LAST STRESS PERIOD

 REUSING RCHS FROM LAST STRESS PERIOD
 UBDSV06 SAVING              DRN IN MODEL GWF_1            PACKAGE GWF_1           CONNECTED TO MODEL GWF_1            PACKAGE DRN_SYS1         ON UNIT   1018 AT TIME STEP      1, STRESS PERIOD      7
 UBDSV06 SAVING              RIV IN MODEL GWF_1            PACKAGE GWF_1           CONNECTED TO MODEL GWF_1            PACKAGE RIV_SYS1         ON UNIT   1018 AT TIME STEP      1, STRESS PERIOD      7
 UBDSV06 SAVING              RIV IN MODEL GWF_1            PACKAGE GWF_1           CONNECTED TO MODEL GWF_1            PACKAGE RIV_SYS2         ON UNIT   1018 AT TIME STEP      1, STRESS PERIOD      7
 UBDSV06 SAVING              RCH IN MODEL GWF_1            PACKAGE GWF_1           CONNECTED TO MODEL GWF_1            PACKAGE RCH_MSW          ON UNIT   1018 AT TIME STEP      1, STRESS PERIOD      7

 HEAD WILL BE SAVED ON UNIT 1017 AT END OF TIME STEP    1, STRESS PERIOD    7


  VOLUME BUDGET FOR ENTIRE MODEL AT END OF TIME STEP    1, STRESS PERIOD   7
  ---------------------------------------------------------------------------------------------------

     CUMULATIVE VOLUME      L**3       RATES FOR THIS TIME STEP      L**3/T          PACKAGE NAME    
     ------------------                 ------------------------                     ----------------

           IN:                                      IN:
           ---                                      ---
              STO-SS =       82020.9051                STO-SS =        5817.6226     STORAGE                          
                 DRN =           0.0000                   DRN =           0.0000     DRN_SYS1                         
                 RIV =           0.0000                   RIV =           0.0000     RIV_SYS1                         
                 RIV =           0.0000                   RIV =           0.0000     RIV_SYS2                         
                 RCH =       13592.5095                   RCH =        2939.7203     RCH_MSW                          

            TOTAL IN =       95613.4146              TOTAL IN =        8757.3429

          OUT:                                     OUT:
          ----                                     ----
              STO-SS =           0.0000                STO-SS =           0.0000     STORAGE                          
                 DRN =        1737.4535                   DRN =         216.6147     DRN_SYS1                         
                 RIV =       85652.8055                   RIV =        7955.1056     RIV_SYS1                         
                 RIV =        4865.1549                   RIV =         585.1533     RIV_SYS2                         
                 RCH =        3357.8410                   RCH =           0.4428     RCH_MSW                          

           TOTAL OUT =       95613.2549             TOTAL OUT =        8757.3165

            IN - OUT =           0.1597              IN - OUT =       2.6427E-02

 PERCENT DISCREPANCY =           0.00     PERCENT DISCREPANCY =           0.00




         TIME SUMMARY AT END OF TIME STEP    1 IN STRESS PERIOD    7
                    SECONDS     MINUTES      HOURS       DAYS        YEARS
                    -----------------------------------------------------------
   TIME STEP LENGTH  86400.      1440.0      24.000      1.0000     2.73785E-03
 STRESS PERIOD TIME  86400.      1440.0      24.000      1.0000     2.73785E-03
         TOTAL TIME 6.04800E+05  10080.      168.00      7.0000     1.91650E-02


end timestep


start timestep kper="8" kstp="1" mode="normal"

 #Stressperiod Save Options

 BEGIN READING OUTPUT CONTROL FOR STRESS PERIOD 8
      ALL TIME STEPS WILL BE SAVED
      ALL TIME STEPS WILL BE SAVED

 END READING OUTPUT CONTROL FOR STRESS PERIOD 8


 PROCESSING STORAGE PERIOD DATA
 END PROCESSING STORAGE PERIOD DATA


 STRESS PERIOD 8 IS TRANSIENT


 REUSING DRNS FROM LAST STRESS PERIOD

 REUSING RIVS FROM LAST STRESS PERIOD

 REUSING RIVS FROM LAST STRESS PERIOD

 REUSING RCHS FROM LAST STRESS PERIOD
 UBDSV06 SAVING              DRN IN MODEL GWF_1            PACKAGE GWF_1           CONNECTED TO MODEL GWF_1            PACKAGE DRN_SYS1         ON UNIT   1018 AT TIME STEP      1, STRESS PERIOD      8
 UBDSV06 SAVING              RIV IN MODEL GWF_1            PACKAGE GWF_1           CONNECTED TO MODEL GWF_1            PACKAGE RIV_SYS1         ON UNIT   1018 AT TIME STEP      1, STRESS PERIOD      8
 UBDSV06 SAVING              RIV IN MODEL GWF_1            PACKAGE GWF_1           CONNECTED TO MODEL GWF_1            PACKAGE RIV_SYS2         ON UNIT   1018 AT TIME STEP      1, STRESS PERIOD      8
 UBDSV06 SAVING              RCH IN MODEL GWF_1            PACKAGE GWF_1           CONNECTED TO MODEL GWF_1            PACKAGE RCH_MSW          ON UNIT   1018 AT TIME STEP      1, STRESS PERIOD      8

 HEAD WILL BE SAVED ON UNIT 1017 AT END OF TIME STEP    1, STRESS PERIOD    8


  VOLUME BUDGET FOR ENTIRE MODEL AT END OF TIME STEP    1, STRESS PERIOD   8
  ---------------------------------------------------------------------------------------------------

     CUMULATIVE VOLUME      L**3       RATES FOR THIS TIME STEP      L**3/T          PACKAGE NAME    
     ------------------                 ------------------------                     ----------------

           IN:                                      IN:
           ---                                      ---
              STO-SS =       87642.0585                STO-SS =        5621.1534     STORAGE                          
                 DRN =           0.0000                   DRN =           0.0000     DRN_SYS1                         
                 RIV =           1.2397                   RIV =           1.2397     RIV_SYS1                         
                 RIV =           0.0000                   RIV =           0.0000     RIV_SYS2                         
                 RCH =       16123.6689                   RCH =        2531.1595     RCH_MSW                          

            TOTAL IN =      103766.9672              TOTAL IN =        8153.5526

          OUT:                                     OUT:
          ----                                     ----
              STO-SS =           0.0000                STO-SS =           0.0000     STORAGE                          
                 DRN =        1944.6225                   DRN =         207.1690     DRN_SYS1                         
                 RIV =       93042.8962                   RIV =        7390.0907     RIV_SYS1                         
                 RIV =        5421.4167                   RIV =         556.2618     RIV_SYS2                         
                 RCH =        3357.8410                   RCH =           0.0000     RCH_MSW                          

           TOTAL OUT =      103766.7764             TOTAL OUT =        8153.5215

            IN - OUT =           0.1907              IN - OUT =       3.1028E-02

 PERCENT DISCREPANCY =           0.00     PERCENT DISCREPANCY =           0.00




         TIME SUMMARY AT END OF TIME STEP    1 IN STRESS PERIOD    8
                    SECONDS     MINUTES      HOURS       DAYS        YEARS
                    -----------------------------------------------------------
   TIME STEP LENGTH  86400.      1440.0      24.000      1.0000     2.73785E-03
 STRESS PERIOD TIME  86400.      1440.0      24.000      1.0000     2.73785E-03
         TOTAL TIME 6.91200E+05  11520.      192.00      8.0000     2.19028E-02


end timestep


start timestep kper="9" kstp="1" mode="normal"

 #Stressperiod Save Options

 BEGIN READING OUTPUT CONTROL FOR STRESS PERIOD 9
      ALL TIME STEPS WILL BE SAVED
      ALL TIME STEPS WILL BE SAVED

 END READING OUTPUT CONTROL FOR STRESS PERIOD 9


 PROCESSING STORAGE PERIOD DATA
 END PROCESSING STORAGE PERIOD DATA


 STRESS PERIOD 9 IS TRANSIENT


 REUSING DRNS FROM LAST STRESS PERIOD

 REUSING RIVS FROM LAST STRESS PERIOD

 REUSING RIVS FROM LAST STRESS PERIOD

 REUSING RCHS FROM LAST STRESS PERIOD
 UBDSV06 SAVING              DRN IN MODEL GWF_1            PACKAGE GWF_1           CONNECTED TO MODEL GWF_1            PACKAGE DRN_SYS1         ON UNIT   1018 AT TIME STEP      1, STRESS PERIOD      9
 UBDSV06 SAVING              RIV IN MODEL GWF_1            PACKAGE GWF_1           CONNECTED TO MODEL GWF_1            PACKAGE RIV_SYS1         ON UNIT   1018 AT TIME STEP      1, STRESS PERIOD      9
 UBDSV06 SAVING              RIV IN MODEL GWF_1            PACKAGE GWF_1           CONNECTED TO MODEL GWF_1            PACKAGE RIV_SYS2         ON UNIT   1018 AT TIME STEP      1, STRESS PERIOD      9
 UBDSV06 SAVING              RCH IN MODEL GWF_1            PACKAGE GWF_1           CONNECTED TO MODEL GWF_1            PACKAGE RCH_MSW          ON UNIT   1018 AT TIME STEP      1, STRESS PERIOD      9

 HEAD WILL BE SAVED ON UNIT 1017 AT END OF TIME STEP    1, STRESS PERIOD    9


  VOLUME BUDGET FOR ENTIRE MODEL AT END OF TIME STEP    1, STRESS PERIOD   9
  ---------------------------------------------------------------------------------------------------

     CUMULATIVE VOLUME      L**3       RATES FOR THIS TIME STEP      L**3/T          PACKAGE NAME    
     ------------------                 ------------------------                     ----------------

           IN:                                      IN:
           ---                                      ---
              STO-SS =       93054.5079                STO-SS =        5412.4494     STORAGE                          
                 DRN =           0.0000                   DRN =           0.0000     DRN_SYS1                         
                 RIV =           4.4649                   RIV =           3.2251     RIV_SYS1                         
                 RIV =           0.0000                   RIV =           0.0000     RIV_SYS2                         
                 RCH =       18318.1927                   RCH =        2194.5238     RCH_MSW                          

            TOTAL IN =      111377.1655              TOTAL IN =        7610.1983

          OUT:                                     OUT:
          ----                                     ----
              STO-SS =           0.0000                STO-SS =           0.0000     STORAGE                          
                 DRN =        2142.4684                   DRN =         197.8459     DRN_SYS1                         
                 RIV =       99926.6857                   RIV =        6883.7895     RIV_SYS1                         
                 RIV =        5950.0526                   RIV =         528.6359     RIV_SYS2                         
                 RCH =        3357.8410                   RCH =           0.0000     RCH_MSW                          

           TOTAL OUT =      111377.0476             TOTAL OUT =        7610.2712

            IN - OUT =           0.1179              IN - OUT =      -7.2863E-02

 PERCENT DISCREPANCY =           0.00     PERCENT DISCREPANCY =          -0.00




         TIME SUMMARY AT END OF TIME STEP    1 IN STRESS PERIOD    9
                    SECONDS     MINUTES      HOURS       DAYS        YEARS
                    -----------------------------------------------------------
   TIME STEP LENGTH  86400.      1440.0      24.000      1.0000     2.73785E-03
 STRESS PERIOD TIME  86400.      1440.0      24.000      1.0000     2.73785E-03
         TOTAL TIME 7.77600E+05  12960.      216.00      9.0000     2.46407E-02


end timestep


start timestep kper="10" kstp="1" mode="normal"

 #Stressperiod Save Options

 BEGIN READING OUTPUT CONTROL FOR STRESS PERIOD 10
      ALL TIME STEPS WILL BE SAVED
      ALL TIME STEPS WILL BE SAVED

 END READING OUTPUT CONTROL FOR STRESS PERIOD 10


 PROCESSING STORAGE PERIOD DATA
 END PROCESSING STORAGE PERIOD DATA


 STRESS PERIOD 10 IS TRANSIENT


 REUSING DRNS FROM LAST STRESS PERIOD

 REUSING RIVS FROM LAST STRESS PERIOD

 REUSING RIVS FROM LAST STRESS PERIOD

 REUSING RCHS FROM LAST STRESS PERIOD
 UBDSV06 SAVING              DRN IN MODEL GWF_1            PACKAGE GWF_1           CONNECTED TO MODEL GWF_1            PACKAGE DRN_SYS1         ON UNIT   1018 AT TIME STEP      1, STRESS PERIOD     10
 UBDSV06 SAVING              RIV IN MODEL GWF_1            PACKAGE GWF_1           CONNECTED TO MODEL GWF_1            PACKAGE RIV_SYS1         ON UNIT   1018 AT TIME STEP      1, STRESS PERIOD     10
 UBDSV06 SAVING              RIV IN MODEL GWF_1            PACKAGE GWF_1           CONNECTED TO MODEL GWF_1            PACKAGE RIV_SYS2         ON UNIT   1018 AT TIME STEP      1, STRESS PERIOD     10
 UBDSV06 SAVING              RCH IN MODEL GWF_1            PACKAGE GWF_1           CONNECTED TO MODEL GWF_1            PACKAGE RCH_MSW          ON UNIT   1018 AT TIME STEP      1, STRESS PERIOD     10

 HEAD WILL BE SAVED ON UNIT 1017 AT END OF TIME STEP    1, STRESS PERIOD   10


  VOLUME BUDGET FOR ENTIRE MODEL AT END OF TIME STEP    1, STRESS PERIOD  10
  ---------------------------------------------------------------------------------------------------

     CUMULATIVE VOLUME      L**3       RATES FOR THIS TIME STEP      L**3/T          PACKAGE NAME    
     ------------------                 ------------------------                     ----------------

           IN:                                      IN:
           ---                                      ---
              STO-SS =       98223.6917                STO-SS =        5169.1838     STORAGE                          
                 DRN =           0.0000                   DRN =           0.0000     DRN_SYS1                         
                 RIV =          11.2540                   RIV =           6.7891     RIV_SYS1                         
                 RIV =           0.0000                   RIV =           0.0000     RIV_SYS2                         
                 RCH =       20265.7224                   RCH =        1947.5297     RCH_MSW                          

            TOTAL IN =      118500.6681              TOTAL IN =        7123.5026

          OUT:                                     OUT:
          ----                                     ----
              STO-SS =           0.0000                STO-SS =           0.0000     STORAGE                          
                 DRN =        2331.4043                   DRN =         188.9359     DRN_SYS1                         
                 RIV =      106358.8049                   RIV =        6432.1192     RIV_SYS1                         
                 RIV =        6452.5060                   RIV =         502.4534     RIV_SYS2                         
                 RCH =        3357.8410                   RCH =           0.0000     RCH_MSW                          

           TOTAL OUT =      118500.5562             TOTAL OUT =        7123.5085

            IN - OUT =           0.1119              IN - OUT =      -5.9360E-03

 PERCENT DISCREPANCY =           0.00     PERCENT DISCREPANCY =          -0.00




         TIME SUMMARY AT END OF TIME STEP    1 IN STRESS PERIOD   10
                    SECONDS     MINUTES      HOURS       DAYS        YEARS
                    -----------------------------------------------------------
   TIME STEP LENGTH  86400.      1440.0      24.000      1.0000     2.73785E-03
 STRESS PERIOD TIME  86400.      1440.0      24.000      1.0000     2.73785E-03
         TOTAL TIME 8.64000E+05  14400.      240.00      10.000     2.73785E-02


end timestep


start timestep kper="11" kstp="1" mode="normal"

 #Stressperiod Save Options

 BEGIN READING OUTPUT CONTROL FOR STRESS PERIOD 11
      ALL TIME STEPS WILL BE SAVED
      ALL TIME STEPS WILL BE SAVED

 END READING OUTPUT CONTROL FOR STRESS PERIOD 11


 PROCESSING STORAGE PERIOD DATA
 END PROCESSING STORAGE PERIOD DATA


 STRESS PERIOD 11 IS TRANSIENT


 REUSING DRNS FROM LAST STRESS PERIOD

 REUSING RIVS FROM LAST STRESS PERIOD

 REUSING RIVS FROM LAST STRESS PERIOD

 REUSING RCHS FROM LAST STRESS PERIOD
 UBDSV06 SAVING              DRN IN MODEL GWF_1            PACKAGE GWF_1           CONNECTED TO MODEL GWF_1            PACKAGE DRN_SYS1         ON UNIT   1018 AT TIME STEP      1, STRESS PERIOD     11
 UBDSV06 SAVING              RIV IN MODEL GWF_1            PACKAGE GWF_1           CONNECTED TO MODEL GWF_1            PACKAGE RIV_SYS1         ON UNIT   1018 AT TIME STEP      1, STRESS PERIOD     11
 UBDSV06 SAVING              RIV IN MODEL GWF_1            PACKAGE GWF_1           CONNECTED TO MODEL GWF_1            PACKAGE RIV_SYS2         ON UNIT   1018 AT TIME STEP      1, STRESS PERIOD     11
 UBDSV06 SAVING              RCH IN MODEL GWF_1            PACKAGE GWF_1           CONNECTED TO MODEL GWF_1            PACKAGE RCH_MSW          ON UNIT   1018 AT TIME STEP      1, STRESS PERIOD     11

 HEAD WILL BE SAVED ON UNIT 1017 AT END OF TIME STEP    1, STRESS PERIOD   11


  VOLUME BUDGET FOR ENTIRE MODEL AT END OF TIME STEP    1, STRESS PERIOD  11
  ---------------------------------------------------------------------------------------------------

     CUMULATIVE VOLUME      L**3       RATES FOR THIS TIME STEP      L**3/T          PACKAGE NAME    
     ------------------                 ------------------------                     ----------------

           IN:                                      IN:
           ---                                      ---
              STO-SS =      103096.6355                STO-SS =        4872.9437     STORAGE                          
                 DRN =           0.0000                   DRN =           0.0000     DRN_SYS1                         
                 RIV =          27.8649                   RIV =          16.6109     RIV_SYS1                         
                 RIV =           0.0000                   RIV =           0.0000     RIV_SYS2                         
                 RCH =       22073.5202                   RCH =        1807.7978     RCH_MSW                          

            TOTAL IN =      125198.0205              TOTAL IN =        6697.3524

          OUT:                                     OUT:
          ----                                     ----
              STO-SS =           0.0000                STO-SS =           0.0000     STORAGE                          
                 DRN =        2511.8649                   DRN =         180.4606     DRN_SYS1                         
                 RIV =      112397.7645                   RIV =        6038.9596     RIV_SYS1                         
                 RIV =        6930.4488                   RIV =         477.9429     RIV_SYS2                         
                 RCH =        3357.8410                   RCH =           0.0000     RCH_MSW                          

           TOTAL OUT =      125197.9192             TOTAL OUT =        6697.3631

            IN - OUT =           0.1013              IN - OUT =      -1.0617E-02

 PERCENT DISCREPANCY =           0.00     PERCENT DISCREPANCY =          -0.00




         TIME SUMMARY AT END OF TIME STEP    1 IN STRESS PERIOD   11
                    SECONDS     MINUTES      HOURS       DAYS        YEARS
                    -----------------------------------------------------------
   TIME STEP LENGTH  86400.      1440.0      24.000      1.0000     2.73785E-03
 STRESS PERIOD TIME  86400.      1440.0      24.000      1.0000     2.73785E-03
         TOTAL TIME 9.50400E+05  15840.      264.00      11.000     3.01164E-02


end timestep


start timestep kper="12" kstp="1" mode="normal"

 #Stressperiod Save Options

 BEGIN READING OUTPUT CONTROL FOR STRESS PERIOD 12
      ALL TIME STEPS WILL BE SAVED
      ALL TIME STEPS WILL BE SAVED

 END READING OUTPUT CONTROL FOR STRESS PERIOD 12


 PROCESSING STORAGE PERIOD DATA
 END PROCESSING STORAGE PERIOD DATA


 STRESS PERIOD 12 IS TRANSIENT


 REUSING DRNS FROM LAST STRESS PERIOD

 REUSING RIVS FROM LAST STRESS PERIOD

 REUSING RIVS FROM LAST STRESS PERIOD

 REUSING RCHS FROM LAST STRESS PERIOD
 UBDSV06 SAVING              DRN IN MODEL GWF_1            PACKAGE GWF_1           CONNECTED TO MODEL GWF_1            PACKAGE DRN_SYS1         ON UNIT   1018 AT TIME STEP      1, STRESS PERIOD     12
 UBDSV06 SAVING              RIV IN MODEL GWF_1            PACKAGE GWF_1           CONNECTED TO MODEL GWF_1            PACKAGE RIV_SYS1         ON UNIT   1018 AT TIME STEP      1, STRESS PERIOD     12
 UBDSV06 SAVING              RIV IN MODEL GWF_1            PACKAGE GWF_1           CONNECTED TO MODEL GWF_1            PACKAGE RIV_SYS2         ON UNIT   1018 AT TIME STEP      1, STRESS PERIOD     12
 UBDSV06 SAVING              RCH IN MODEL GWF_1            PACKAGE GWF_1           CONNECTED TO MODEL GWF_1            PACKAGE RCH_MSW          ON UNIT   1018 AT TIME STEP      1, STRESS PERIOD     12

 HEAD WILL BE SAVED ON UNIT 1017 AT END OF TIME STEP    1, STRESS PERIOD   12


  VOLUME BUDGET FOR ENTIRE MODEL AT END OF TIME STEP    1, STRESS PERIOD  12
  ---------------------------------------------------------------------------------------------------

     CUMULATIVE VOLUME      L**3       RATES FOR THIS TIME STEP      L**3/T          PACKAGE NAME    
     ------------------                 ------------------------                     ----------------

           IN:                                      IN:
           ---                                      ---
              STO-SS =      107499.0450                STO-SS =        4402.4096     STORAGE                          
                 DRN =           0.0000                   DRN =           0.0000     DRN_SYS1                         
                 RIV =          61.2115                   RIV =          33.3467     RIV_SYS1                         
                 RIV =           0.0000                   RIV =           0.0000     RIV_SYS2                         
                 RCH =       23979.9464                   RCH =        1906.4262     RCH_MSW                          

            TOTAL IN =      131540.2029              TOTAL IN =        6342.1824

          OUT:                                     OUT:
          ----                                     ----
              STO-SS =           0.0000                STO-SS =           0.0000     STORAGE                          
                 DRN =        2684.4888                   DRN =         172.6239     DRN_SYS1                         
                 RIV =      118111.8677                   RIV =        5714.1032     RIV_SYS1                         
                 RIV =        7385.9754                   RIV =         455.5266     RIV_SYS2                         
                 RCH =        3357.8410                   RCH =           0.0000     RCH_MSW                          

           TOTAL OUT =      131540.1729             TOTAL OUT =        6342.2536

            IN - OUT =       3.0085E-02              IN - OUT =      -7.1233E-02

 PERCENT DISCREPANCY =           0.00     PERCENT DISCREPANCY =          -0.00




         TIME SUMMARY AT END OF TIME STEP    1 IN STRESS PERIOD   12
                    SECONDS     MINUTES      HOURS       DAYS        YEARS
                    -----------------------------------------------------------
   TIME STEP LENGTH  86400.      1440.0      24.000      1.0000     2.73785E-03
 STRESS PERIOD TIME  86400.      1440.0      24.000      1.0000     2.73785E-03
         TOTAL TIME 1.03680E+06  17280.      288.00      12.000     3.28542E-02


end timestep


start timestep kper="13" kstp="1" mode="normal"

 #Stressperiod Save Options

 BEGIN READING OUTPUT CONTROL FOR STRESS PERIOD 13
      ALL TIME STEPS WILL BE SAVED
      ALL TIME STEPS WILL BE SAVED

 END READING OUTPUT CONTROL FOR STRESS PERIOD 13


 PROCESSING STORAGE PERIOD DATA
 END PROCESSING STORAGE PERIOD DATA


 STRESS PERIOD 13 IS TRANSIENT


 REUSING DRNS FROM LAST STRESS PERIOD

 REUSING RIVS FROM LAST STRESS PERIOD

 REUSING RIVS FROM LAST STRESS PERIOD

 REUSING RCHS FROM LAST STRESS PERIOD
 UBDSV06 SAVING              DRN IN MODEL GWF_1            PACKAGE GWF_1           CONNECTED TO MODEL GWF_1            PACKAGE DRN_SYS1         ON UNIT   1018 AT TIME STEP      1, STRESS PERIOD     13
 UBDSV06 SAVING              RIV IN MODEL GWF_1            PACKAGE GWF_1           CONNECTED TO MODEL GWF_1            PACKAGE RIV_SYS1         ON UNIT   1018 AT TIME STEP      1, STRESS PERIOD     13
 UBDSV06 SAVING              RIV IN MODEL GWF_1            PACKAGE GWF_1           CONNECTED TO MODEL GWF_1            PACKAGE RIV_SYS2         ON UNIT   1018 AT TIME STEP      1, STRESS PERIOD     13
 UBDSV06 SAVING              RCH IN MODEL GWF_1            PACKAGE GWF_1           CONNECTED TO MODEL GWF_1            PACKAGE RCH_MSW          ON UNIT   1018 AT TIME STEP      1, STRESS PERIOD     13

 HEAD WILL BE SAVED ON UNIT 1017 AT END OF TIME STEP    1, STRESS PERIOD   13


  VOLUME BUDGET FOR ENTIRE MODEL AT END OF TIME STEP    1, STRESS PERIOD  13
  ---------------------------------------------------------------------------------------------------

     CUMULATIVE VOLUME      L**3       RATES FOR THIS TIME STEP      L**3/T          PACKAGE NAME    
     ------------------                 ------------------------                     ----------------

           IN:                                      IN:
           ---                                      ---
              STO-SS =      111465.1878                STO-SS =        3966.1427     STORAGE                          
                 DRN =           0.0000                   DRN =           0.0000     DRN_SYS1                         
                 RIV =         110.4478                   RIV =          49.2363     RIV_SYS1                         
                 RIV =           0.0000                   RIV =           0.0000     RIV_SYS2                         
                 RCH =       26005.1612                   RCH =        2025.2148     RCH_MSW                          

            TOTAL IN =      137580.7968              TOTAL IN =        6040.5939

          OUT:                                     OUT:
          ----                                     ----
              STO-SS =           0.0000                STO-SS =           0.0000     STORAGE                          
                 DRN =        2849.9441                   DRN =         165.4553     DRN_SYS1                         
                 RIV =      123551.8980                   RIV =        5440.0303     RIV_SYS1                         
                 RIV =        7821.1177                   RIV =         435.1422     RIV_SYS2                         
                 RCH =        3357.8410                   RCH =           0.0000     RCH_MSW                          

           TOTAL OUT =      137580.8007             TOTAL OUT =        6040.6278

            IN - OUT =      -3.8965E-03              IN - OUT =      -3.3981E-02

 PERCENT DISCREPANCY =          -0.00     PERCENT DISCREPANCY =          -0.00




         TIME SUMMARY AT END OF TIME STEP    1 IN STRESS PERIOD   13
                    SECONDS     MINUTES      HOURS       DAYS        YEARS
                    -----------------------------------------------------------
   TIME STEP LENGTH  86400.      1440.0      24.000      1.0000     2.73785E-03
 STRESS PERIOD TIME  86400.      1440.0      24.000      1.0000     2.73785E-03
         TOTAL TIME 1.12320E+06  18720.      312.00      13.000     3.55921E-02


end timestep


start timestep kper="14" kstp="1" mode="normal"

 #Stressperiod Save Options

 BEGIN READING OUTPUT CONTROL FOR STRESS PERIOD 14
      ALL TIME STEPS WILL BE SAVED
      ALL TIME STEPS WILL BE SAVED

 END READING OUTPUT CONTROL FOR STRESS PERIOD 14


 PROCESSING STORAGE PERIOD DATA
 END PROCESSING STORAGE PERIOD DATA


 STRESS PERIOD 14 IS TRANSIENT


 REUSING DRNS FROM LAST STRESS PERIOD

 REUSING RIVS FROM LAST STRESS PERIOD

 REUSING RIVS FROM LAST STRESS PERIOD

 REUSING RCHS FROM LAST STRESS PERIOD
 UBDSV06 SAVING              DRN IN MODEL GWF_1            PACKAGE GWF_1           CONNECTED TO MODEL GWF_1            PACKAGE DRN_SYS1         ON UNIT   1018 AT TIME STEP      1, STRESS PERIOD     14
 UBDSV06 SAVING              RIV IN MODEL GWF_1            PACKAGE GWF_1           CONNECTED TO MODEL GWF_1            PACKAGE RIV_SYS1         ON UNIT   1018 AT TIME STEP      1, STRESS PERIOD     14
 UBDSV06 SAVING              RIV IN MODEL GWF_1            PACKAGE GWF_1           CONNECTED TO MODEL GWF_1            PACKAGE RIV_SYS2         ON UNIT   1018 AT TIME STEP      1, STRESS PERIOD     14
 UBDSV06 SAVING              RCH IN MODEL GWF_1            PACKAGE GWF_1           CONNECTED TO MODEL GWF_1            PACKAGE RCH_MSW          ON UNIT   1018 AT TIME STEP      1, STRESS PERIOD     14

 HEAD WILL BE SAVED ON UNIT 1017 AT END OF TIME STEP    1, STRESS PERIOD   14


  VOLUME BUDGET FOR ENTIRE MODEL AT END OF TIME STEP    1, STRESS PERIOD  14
  ---------------------------------------------------------------------------------------------------

     CUMULATIVE VOLUME      L**3       RATES FOR THIS TIME STEP      L**3/T          PACKAGE NAME    
     ------------------                 ------------------------                     ----------------

           IN:                                      IN:
           ---                                      ---
              STO-SS =      114990.7671                STO-SS =        3525.5793     STORAGE                          
                 DRN =           0.0000                   DRN =           0.0000     DRN_SYS1                         
                 RIV =         179.6133                   RIV =          69.1655     RIV_SYS1                         
                 RIV =           0.0000                   RIV =           0.0000     RIV_SYS2                         
                 RCH =       28203.7386                   RCH =        2198.5774     RCH_MSW                          

            TOTAL IN =      143374.1190              TOTAL IN =        5793.3222

          OUT:                                     OUT:
          ----                                     ----
              STO-SS =           0.0000                STO-SS =           0.0000     STORAGE                          
                 DRN =        3008.8933                   DRN =         158.9493     DRN_SYS1                         
                 RIV =      128769.5226                   RIV =        5217.6246     RIV_SYS1                         
                 RIV =        8237.8708                   RIV =         416.7532     RIV_SYS2                         
                 RCH =        3357.8410                   RCH =           0.0000     RCH_MSW                          

           TOTAL OUT =      143374.1277             TOTAL OUT =        5793.3271

            IN - OUT =      -8.7808E-03              IN - OUT =      -4.8843E-03

 PERCENT DISCREPANCY =          -0.00     PERCENT DISCREPANCY =          -0.00




         TIME SUMMARY AT END OF TIME STEP    1 IN STRESS PERIOD   14
                    SECONDS     MINUTES      HOURS       DAYS        YEARS
                    -----------------------------------------------------------
   TIME STEP LENGTH  86400.      1440.0      24.000      1.0000     2.73785E-03
 STRESS PERIOD TIME  86400.      1440.0      24.000      1.0000     2.73785E-03
         TOTAL TIME 1.20960E+06  20160.      336.00      14.000     3.83299E-02


end timestep


start timestep kper="15" kstp="1" mode="normal"

 #Stressperiod Save Options

 BEGIN READING OUTPUT CONTROL FOR STRESS PERIOD 15
      ALL TIME STEPS WILL BE SAVED
      ALL TIME STEPS WILL BE SAVED

 END READING OUTPUT CONTROL FOR STRESS PERIOD 15


 PROCESSING STORAGE PERIOD DATA
 END PROCESSING STORAGE PERIOD DATA


 STRESS PERIOD 15 IS TRANSIENT


 REUSING DRNS FROM LAST STRESS PERIOD

 REUSING RIVS FROM LAST STRESS PERIOD

 REUSING RIVS FROM LAST STRESS PERIOD

 REUSING RCHS FROM LAST STRESS PERIOD
 UBDSV06 SAVING              DRN IN MODEL GWF_1            PACKAGE GWF_1           CONNECTED TO MODEL GWF_1            PACKAGE DRN_SYS1         ON UNIT   1018 AT TIME STEP      1, STRESS PERIOD     15
 UBDSV06 SAVING              RIV IN MODEL GWF_1            PACKAGE GWF_1           CONNECTED TO MODEL GWF_1            PACKAGE RIV_SYS1         ON UNIT   1018 AT TIME STEP      1, STRESS PERIOD     15
 UBDSV06 SAVING              RIV IN MODEL GWF_1            PACKAGE GWF_1           CONNECTED TO MODEL GWF_1            PACKAGE RIV_SYS2         ON UNIT   1018 AT TIME STEP      1, STRESS PERIOD     15
 UBDSV06 SAVING              RCH IN MODEL GWF_1            PACKAGE GWF_1           CONNECTED TO MODEL GWF_1            PACKAGE RCH_MSW          ON UNIT   1018 AT TIME STEP      1, STRESS PERIOD     15

 HEAD WILL BE SAVED ON UNIT 1017 AT END OF TIME STEP    1, STRESS PERIOD   15


  VOLUME BUDGET FOR ENTIRE MODEL AT END OF TIME STEP    1, STRESS PERIOD  15
  ---------------------------------------------------------------------------------------------------

     CUMULATIVE VOLUME      L**3       RATES FOR THIS TIME STEP      L**3/T          PACKAGE NAME    
     ------------------                 ------------------------                     ----------------

           IN:                                      IN:
           ---                                      ---
              STO-SS =      118271.3012                STO-SS =        3280.5341     STORAGE                          
                 DRN =           0.0000                   DRN =           0.0000     DRN_SYS1                         
                 RIV =         267.0879                   RIV =          87.4745     RIV_SYS1                         
                 RIV =           0.0000                   RIV =           0.0000     RIV_SYS2                         
                 RCH =       30397.7499                   RCH =        2194.0114     RCH_MSW                          

            TOTAL IN =      148936.1390              TOTAL IN =        5562.0200

          OUT:                                     OUT:
          ----                                     ----
              STO-SS =           0.0000                STO-SS =           0.0000     STORAGE                          
                 DRN =        3161.7664                   DRN =         152.8731     DRN_SYS1                         
                 RIV =      133778.9203                   RIV =        5009.3977     RIV_SYS1                         
                 RIV =        8637.6240                   RIV =         399.7532     RIV_SYS2                         
                 RCH =        3357.8410                   RCH =           0.0000     RCH_MSW                          

           TOTAL OUT =      148936.1517             TOTAL OUT =        5562.0240

            IN - OUT =      -1.2729E-02              IN - OUT =      -3.9478E-03

 PERCENT DISCREPANCY =          -0.00     PERCENT DISCREPANCY =          -0.00




         TIME SUMMARY AT END OF TIME STEP    1 IN STRESS PERIOD   15
                    SECONDS     MINUTES      HOURS       DAYS        YEARS
                    -----------------------------------------------------------
   TIME STEP LENGTH  86400.      1440.0      24.000      1.0000     2.73785E-03
 STRESS PERIOD TIME  86400.      1440.0      24.000      1.0000     2.73785E-03
         TOTAL TIME 1.29600E+06  21600.      360.00      15.000     4.10678E-02


end timestep


start timestep kper="16" kstp="1" mode="normal"

 #Stressperiod Save Options

 BEGIN READING OUTPUT CONTROL FOR STRESS PERIOD 16
      ALL TIME STEPS WILL BE SAVED
      ALL TIME STEPS WILL BE SAVED

 END READING OUTPUT CONTROL FOR STRESS PERIOD 16


 PROCESSING STORAGE PERIOD DATA
 END PROCESSING STORAGE PERIOD DATA


 STRESS PERIOD 16 IS TRANSIENT


 REUSING DRNS FROM LAST STRESS PERIOD

 REUSING RIVS FROM LAST STRESS PERIOD

 REUSING RIVS FROM LAST STRESS PERIOD

 REUSING RCHS FROM LAST STRESS PERIOD
 UBDSV06 SAVING              DRN IN MODEL GWF_1            PACKAGE GWF_1           CONNECTED TO MODEL GWF_1            PACKAGE DRN_SYS1         ON UNIT   1018 AT TIME STEP      1, STRESS PERIOD     16
 UBDSV06 SAVING              RIV IN MODEL GWF_1            PACKAGE GWF_1           CONNECTED TO MODEL GWF_1            PACKAGE RIV_SYS1         ON UNIT   1018 AT TIME STEP      1, STRESS PERIOD     16
 UBDSV06 SAVING              RIV IN MODEL GWF_1            PACKAGE GWF_1           CONNECTED TO MODEL GWF_1            PACKAGE RIV_SYS2         ON UNIT   1018 AT TIME STEP      1, STRESS PERIOD     16
 UBDSV06 SAVING              RCH IN MODEL GWF_1            PACKAGE GWF_1           CONNECTED TO MODEL GWF_1            PACKAGE RCH_MSW          ON UNIT   1018 AT TIME STEP      1, STRESS PERIOD     16

 HEAD WILL BE SAVED ON UNIT 1017 AT END OF TIME STEP    1, STRESS PERIOD   16


  VOLUME BUDGET FOR ENTIRE MODEL AT END OF TIME STEP    1, STRESS PERIOD  16
  ---------------------------------------------------------------------------------------------------

     CUMULATIVE VOLUME      L**3       RATES FOR THIS TIME STEP      L**3/T          PACKAGE NAME    
     ------------------                 ------------------------                     ----------------

           IN:                                      IN:
           ---                                      ---
              STO-SS =      121396.7827                STO-SS =        3125.4815     STORAGE                          
                 DRN =           0.0000                   DRN =           0.0000     DRN_SYS1                         
                 RIV =         372.7554                   RIV =         105.6675     RIV_SYS1                         
                 RIV =           0.0000                   RIV =           0.0000     RIV_SYS2                         
                 RCH =       32506.6141                   RCH =        2108.8641     RCH_MSW                          

            TOTAL IN =      154276.1522              TOTAL IN =        5340.0132

          OUT:                                     OUT:
          ----                                     ----
              STO-SS =           0.0000                STO-SS =           0.0000     STORAGE                          
                 DRN =        3308.8418                   DRN =         147.0754     DRN_SYS1                         
                 RIV =      138588.1484                   RIV =        4809.2281     RIV_SYS1                         
                 RIV =        9021.3522                   RIV =         383.7282     RIV_SYS2                         
                 RCH =        3357.8410                   RCH =           0.0000     RCH_MSW                          

           TOTAL OUT =      154276.1834             TOTAL OUT =        5340.0317

            IN - OUT =      -3.1204E-02              IN - OUT =      -1.8475E-02

 PERCENT DISCREPANCY =          -0.00     PERCENT DISCREPANCY =          -0.00




         TIME SUMMARY AT END OF TIME STEP    1 IN STRESS PERIOD   16
                    SECONDS     MINUTES      HOURS       DAYS        YEARS
                    -----------------------------------------------------------
   TIME STEP LENGTH  86400.      1440.0      24.000      1.0000     2.73785E-03
 STRESS PERIOD TIME  86400.      1440.0      24.000      1.0000     2.73785E-03
         TOTAL TIME 1.38240E+06  23040.      384.00      16.000     4.38056E-02


end timestep


start timestep kper="17" kstp="1" mode="normal"

 #Stressperiod Save Options

 BEGIN READING OUTPUT CONTROL FOR STRESS PERIOD 17
      ALL TIME STEPS WILL BE SAVED
      ALL TIME STEPS WILL BE SAVED

 END READING OUTPUT CONTROL FOR STRESS PERIOD 17


 PROCESSING STORAGE PERIOD DATA
 END PROCESSING STORAGE PERIOD DATA


 STRESS PERIOD 17 IS TRANSIENT


 REUSING DRNS FROM LAST STRESS PERIOD

 REUSING RIVS FROM LAST STRESS PERIOD

 REUSING RIVS FROM LAST STRESS PERIOD

 REUSING RCHS FROM LAST STRESS PERIOD
 UBDSV06 SAVING              DRN IN MODEL GWF_1            PACKAGE GWF_1           CONNECTED TO MODEL GWF_1            PACKAGE DRN_SYS1         ON UNIT   1018 AT TIME STEP      1, STRESS PERIOD     17
 UBDSV06 SAVING              RIV IN MODEL GWF_1            PACKAGE GWF_1           CONNECTED TO MODEL GWF_1            PACKAGE RIV_SYS1         ON UNIT   1018 AT TIME STEP      1, STRESS PERIOD     17
 UBDSV06 SAVING              RIV IN MODEL GWF_1            PACKAGE GWF_1           CONNECTED TO MODEL GWF_1            PACKAGE RIV_SYS2         ON UNIT   1018 AT TIME STEP      1, STRESS PERIOD     17
 UBDSV06 SAVING              RCH IN MODEL GWF_1            PACKAGE GWF_1           CONNECTED TO MODEL GWF_1            PACKAGE RCH_MSW          ON UNIT   1018 AT TIME STEP      1, STRESS PERIOD     17

 HEAD WILL BE SAVED ON UNIT 1017 AT END OF TIME STEP    1, STRESS PERIOD   17


  VOLUME BUDGET FOR ENTIRE MODEL AT END OF TIME STEP    1, STRESS PERIOD  17
  ---------------------------------------------------------------------------------------------------

     CUMULATIVE VOLUME      L**3       RATES FOR THIS TIME STEP      L**3/T          PACKAGE NAME    
     ------------------                 ------------------------                     ----------------

           IN:                                      IN:
           ---                                      ---
              STO-SS =      124412.3145                STO-SS =        3015.5317     STORAGE                          
                 DRN =           0.0000                   DRN =           0.0000     DRN_SYS1                         
                 RIV =         503.1659                   RIV =         130.4105     RIV_SYS1                         
                 RIV =           0.0000                   RIV =           0.0000     RIV_SYS2                         
                 RCH =       34491.6029                   RCH =        1984.9889     RCH_MSW                          

            TOTAL IN =      159407.0833              TOTAL IN =        5130.9311

          OUT:                                     OUT:
          ----                                     ----
              STO-SS =           0.0000                STO-SS =           0.0000     STORAGE                          
                 DRN =        3450.3330                   DRN =         141.4912     DRN_SYS1                         
                 RIV =      143209.1038                   RIV =        4620.9554     RIV_SYS1                         
                 RIV =        9389.8361                   RIV =         368.4839     RIV_SYS2                         
                 RCH =        3357.8410                   RCH =           0.0000     RCH_MSW                          

           TOTAL OUT =      159407.1139             TOTAL OUT =        5130.9305

            IN - OUT =      -3.0610E-02              IN - OUT =       5.9335E-04

 PERCENT DISCREPANCY =          -0.00     PERCENT DISCREPANCY =           0.00




         TIME SUMMARY AT END OF TIME STEP    1 IN STRESS PERIOD   17
                    SECONDS     MINUTES      HOURS       DAYS        YEARS
                    -----------------------------------------------------------
   TIME STEP LENGTH  86400.      1440.0      24.000      1.0000     2.73785E-03
 STRESS PERIOD TIME  86400.      1440.0      24.000      1.0000     2.73785E-03
         TOTAL TIME 1.46880E+06  24480.      408.00      17.000     4.65435E-02


end timestep


start timestep kper="18" kstp="1" mode="normal"

 #Stressperiod Save Options

 BEGIN READING OUTPUT CONTROL FOR STRESS PERIOD 18
      ALL TIME STEPS WILL BE SAVED
      ALL TIME STEPS WILL BE SAVED

 END READING OUTPUT CONTROL FOR STRESS PERIOD 18


 PROCESSING STORAGE PERIOD DATA
 END PROCESSING STORAGE PERIOD DATA


 STRESS PERIOD 18 IS TRANSIENT


 REUSING DRNS FROM LAST STRESS PERIOD

 REUSING RIVS FROM LAST STRESS PERIOD

 REUSING RIVS FROM LAST STRESS PERIOD

 REUSING RCHS FROM LAST STRESS PERIOD
 UBDSV06 SAVING              DRN IN MODEL GWF_1            PACKAGE GWF_1           CONNECTED TO MODEL GWF_1            PACKAGE DRN_SYS1         ON UNIT   1018 AT TIME STEP      1, STRESS PERIOD     18
 UBDSV06 SAVING              RIV IN MODEL GWF_1            PACKAGE GWF_1           CONNECTED TO MODEL GWF_1            PACKAGE RIV_SYS1         ON UNIT   1018 AT TIME STEP      1, STRESS PERIOD     18
 UBDSV06 SAVING              RIV IN MODEL GWF_1            PACKAGE GWF_1           CONNECTED TO MODEL GWF_1            PACKAGE RIV_SYS2         ON UNIT   1018 AT TIME STEP      1, STRESS PERIOD     18
 UBDSV06 SAVING              RCH IN MODEL GWF_1            PACKAGE GWF_1           CONNECTED TO MODEL GWF_1            PACKAGE RCH_MSW          ON UNIT   1018 AT TIME STEP      1, STRESS PERIOD     18

 HEAD WILL BE SAVED ON UNIT 1017 AT END OF TIME STEP    1, STRESS PERIOD   18


[...]

 #Stressperiod Save Options

 BEGIN READING OUTPUT CONTROL FOR STRESS PERIOD 361
      ALL TIME STEPS WILL BE SAVED
      ALL TIME STEPS WILL BE SAVED

 END READING OUTPUT CONTROL FOR STRESS PERIOD 361


 PROCESSING STORAGE PERIOD DATA
 END PROCESSING STORAGE PERIOD DATA


 STRESS PERIOD 361 IS TRANSIENT


 REUSING DRNS FROM LAST STRESS PERIOD

 REUSING RIVS FROM LAST STRESS PERIOD

 REUSING RIVS FROM LAST STRESS PERIOD

 REUSING RCHS FROM LAST STRESS PERIOD
 UBDSV06 SAVING              DRN IN MODEL GWF_1            PACKAGE GWF_1           CONNECTED TO MODEL GWF_1            PACKAGE DRN_SYS1         ON UNIT   1018 AT TIME STEP      1, STRESS PERIOD    361
 UBDSV06 SAVING              RIV IN MODEL GWF_1            PACKAGE GWF_1           CONNECTED TO MODEL GWF_1            PACKAGE RIV_SYS1         ON UNIT   1018 AT TIME STEP      1, STRESS PERIOD    361
 UBDSV06 SAVING              RIV IN MODEL GWF_1            PACKAGE GWF_1           CONNECTED TO MODEL GWF_1            PACKAGE RIV_SYS2         ON UNIT   1018 AT TIME STEP      1, STRESS PERIOD    361
 UBDSV06 SAVING              RCH IN MODEL GWF_1            PACKAGE GWF_1           CONNECTED TO MODEL GWF_1            PACKAGE RCH_MSW          ON UNIT   1018 AT TIME STEP      1, STRESS PERIOD    361

 HEAD WILL BE SAVED ON UNIT 1017 AT END OF TIME STEP    1, STRESS PERIOD  361


  VOLUME BUDGET FOR ENTIRE MODEL AT END OF TIME STEP    1, STRESS PERIOD 361
  ---------------------------------------------------------------------------------------------------

     CUMULATIVE VOLUME      L**3       RATES FOR THIS TIME STEP      L**3/T          PACKAGE NAME    
     ------------------                 ------------------------                     ----------------

           IN:                                      IN:
           ---                                      ---
              STO-SS =      235902.1092                STO-SS =           0.0000     STORAGE                          
                 DRN =           0.0000                   DRN =           0.0000     DRN_SYS1                         
                 RIV =      284440.2044                   RIV =         560.7547     RIV_SYS1                         
                 RIV =           0.0000                   RIV =           0.0000     RIV_SYS2                         
                 RCH =      488811.9231                   RCH =        5183.9291     RCH_MSW                          

            TOTAL IN =     1009154.2367              TOTAL IN =        5744.6838

          OUT:                                     OUT:
          ----                                     ----
              STO-SS =       53676.5694                STO-SS =        2812.0148     STORAGE                          
                 DRN =       18843.3775                   DRN =          54.1118     DRN_SYS1                         
                 RIV =      876753.2297                   RIV =        2724.6935     RIV_SYS1                         
                 RIV =       53392.6281                   RIV =         153.8630     RIV_SYS2                         
                 RCH =        6488.4405                   RCH =           0.0000     RCH_MSW                          

           TOTAL OUT =     1009154.2452             TOTAL OUT =        5744.6832

            IN - OUT =      -8.4894E-03              IN - OUT =       5.8928E-04

 PERCENT DISCREPANCY =          -0.00     PERCENT DISCREPANCY =           0.00




         TIME SUMMARY AT END OF TIME STEP    1 IN STRESS PERIOD  361
                    SECONDS     MINUTES      HOURS       DAYS        YEARS
                    -----------------------------------------------------------
   TIME STEP LENGTH  86400.      1440.0      24.000      1.0000     2.73785E-03
 STRESS PERIOD TIME  86400.      1440.0      24.000      1.0000     2.73785E-03
         TOTAL TIME 3.11904E+07 5.19840E+05  8664.0      361.00     0.98836    


end timestep


start timestep kper="362" kstp="1" mode="normal"

 #Stressperiod Save Options

 BEGIN READING OUTPUT CONTROL FOR STRESS PERIOD 362
      ALL TIME STEPS WILL BE SAVED
      ALL TIME STEPS WILL BE SAVED

 END READING OUTPUT CONTROL FOR STRESS PERIOD 362


 PROCESSING STORAGE PERIOD DATA
 END PROCESSING STORAGE PERIOD DATA


 STRESS PERIOD 362 IS TRANSIENT


 REUSING DRNS FROM LAST STRESS PERIOD

 REUSING RIVS FROM LAST STRESS PERIOD

 REUSING RIVS FROM LAST STRESS PERIOD

 REUSING RCHS FROM LAST STRESS PERIOD
 UBDSV06 SAVING              DRN IN MODEL GWF_1            PACKAGE GWF_1           CONNECTED TO MODEL GWF_1            PACKAGE DRN_SYS1         ON UNIT   1018 AT TIME STEP      1, STRESS PERIOD    362
 UBDSV06 SAVING              RIV IN MODEL GWF_1            PACKAGE GWF_1           CONNECTED TO MODEL GWF_1            PACKAGE RIV_SYS1         ON UNIT   1018 AT TIME STEP      1, STRESS PERIOD    362
 UBDSV06 SAVING              RIV IN MODEL GWF_1            PACKAGE GWF_1           CONNECTED TO MODEL GWF_1            PACKAGE RIV_SYS2         ON UNIT   1018 AT TIME STEP      1, STRESS PERIOD    362
 UBDSV06 SAVING              RCH IN MODEL GWF_1            PACKAGE GWF_1           CONNECTED TO MODEL GWF_1            PACKAGE RCH_MSW          ON UNIT   1018 AT TIME STEP      1, STRESS PERIOD    362

 HEAD WILL BE SAVED ON UNIT 1017 AT END OF TIME STEP    1, STRESS PERIOD  362


  VOLUME BUDGET FOR ENTIRE MODEL AT END OF TIME STEP    1, STRESS PERIOD 362
  ---------------------------------------------------------------------------------------------------

     CUMULATIVE VOLUME      L**3       RATES FOR THIS TIME STEP      L**3/T          PACKAGE NAME    
     ------------------                 ------------------------                     ----------------

           IN:                                      IN:
           ---                                      ---
              STO-SS =      235902.1092                STO-SS =           0.0000     STORAGE                          
                 DRN =           0.0000                   DRN =           0.0000     DRN_SYS1                         
                 RIV =      284815.2628                   RIV =         375.0584     RIV_SYS1                         
                 RIV =           0.0000                   RIV =           0.0000     RIV_SYS2                         
                 RCH =      496002.2613                   RCH =        7190.3382     RCH_MSW                          

            TOTAL IN =     1016719.6333              TOTAL IN =        7565.3966

          OUT:                                     OUT:
          ----                                     ----
              STO-SS =       57738.2120                STO-SS =        4061.6426     STORAGE                          
                 DRN =       18905.3126                   DRN =          61.9351     DRN_SYS1                         
                 RIV =      880018.8938                   RIV =        3265.6640     RIV_SYS1                         
                 RIV =       53568.7824                   RIV =         176.1543     RIV_SYS2                         
                 RCH =        6488.4405                   RCH =           0.0000     RCH_MSW                          

           TOTAL OUT =     1016719.6413             TOTAL OUT =        7565.3961

            IN - OUT =      -7.9826E-03              IN - OUT =       5.0679E-04

 PERCENT DISCREPANCY =          -0.00     PERCENT DISCREPANCY =           0.00




         TIME SUMMARY AT END OF TIME STEP    1 IN STRESS PERIOD  362
                    SECONDS     MINUTES      HOURS       DAYS        YEARS
                    -----------------------------------------------------------
   TIME STEP LENGTH  86400.      1440.0      24.000      1.0000     2.73785E-03
 STRESS PERIOD TIME  86400.      1440.0      24.000      1.0000     2.73785E-03
         TOTAL TIME 3.12768E+07 5.21280E+05  8688.0      362.00     0.99110    


end timestep


start timestep kper="363" kstp="1" mode="normal"

 #Stressperiod Save Options

 BEGIN READING OUTPUT CONTROL FOR STRESS PERIOD 363
      ALL TIME STEPS WILL BE SAVED
      ALL TIME STEPS WILL BE SAVED

 END READING OUTPUT CONTROL FOR STRESS PERIOD 363


 PROCESSING STORAGE PERIOD DATA
 END PROCESSING STORAGE PERIOD DATA


 STRESS PERIOD 363 IS TRANSIENT


 REUSING DRNS FROM LAST STRESS PERIOD

 REUSING RIVS FROM LAST STRESS PERIOD

 REUSING RIVS FROM LAST STRESS PERIOD

 REUSING RCHS FROM LAST STRESS PERIOD
 UBDSV06 SAVING              DRN IN MODEL GWF_1            PACKAGE GWF_1           CONNECTED TO MODEL GWF_1            PACKAGE DRN_SYS1         ON UNIT   1018 AT TIME STEP      1, STRESS PERIOD    363
 UBDSV06 SAVING              RIV IN MODEL GWF_1            PACKAGE GWF_1           CONNECTED TO MODEL GWF_1            PACKAGE RIV_SYS1         ON UNIT   1018 AT TIME STEP      1, STRESS PERIOD    363
 UBDSV06 SAVING              RIV IN MODEL GWF_1            PACKAGE GWF_1           CONNECTED TO MODEL GWF_1            PACKAGE RIV_SYS2         ON UNIT   1018 AT TIME STEP      1, STRESS PERIOD    363
 UBDSV06 SAVING              RCH IN MODEL GWF_1            PACKAGE GWF_1           CONNECTED TO MODEL GWF_1            PACKAGE RCH_MSW          ON UNIT   1018 AT TIME STEP      1, STRESS PERIOD    363

 HEAD WILL BE SAVED ON UNIT 1017 AT END OF TIME STEP    1, STRESS PERIOD  363


  VOLUME BUDGET FOR ENTIRE MODEL AT END OF TIME STEP    1, STRESS PERIOD 363
  ---------------------------------------------------------------------------------------------------

     CUMULATIVE VOLUME      L**3       RATES FOR THIS TIME STEP      L**3/T          PACKAGE NAME    
     ------------------                 ------------------------                     ----------------

           IN:                                      IN:
           ---                                      ---
              STO-SS =      235902.1092                STO-SS =           0.0000     STORAGE                          
                 DRN =           0.0000                   DRN =           0.0000     DRN_SYS1                         
                 RIV =      285014.8802                   RIV =         199.6174     RIV_SYS1                         
                 RIV =           0.0000                   RIV =           0.0000     RIV_SYS2                         
                 RCH =      504868.1266                   RCH =        8865.8653     RCH_MSW                          

            TOTAL IN =     1025785.1160              TOTAL IN =        9065.4827

          OUT:                                     OUT:
          ----                                     ----
              STO-SS =       62713.6957                STO-SS =        4975.4837     STORAGE                          
                 DRN =       18977.8441                   DRN =          72.5315     DRN_SYS1                         
                 RIV =      883830.4588                   RIV =        3811.5651     RIV_SYS1                         
                 RIV =       53774.6858                   RIV =         205.9034     RIV_SYS2                         
                 RCH =        6488.4405                   RCH =           0.0000     RCH_MSW                          

           TOTAL OUT =     1025785.1249             TOTAL OUT =        9065.4837

            IN - OUT =      -8.9143E-03              IN - OUT =      -9.3176E-04

 PERCENT DISCREPANCY =          -0.00     PERCENT DISCREPANCY =          -0.00




         TIME SUMMARY AT END OF TIME STEP    1 IN STRESS PERIOD  363
                    SECONDS     MINUTES      HOURS       DAYS        YEARS
                    -----------------------------------------------------------
   TIME STEP LENGTH  86400.      1440.0      24.000      1.0000     2.73785E-03
 STRESS PERIOD TIME  86400.      1440.0      24.000      1.0000     2.73785E-03
         TOTAL TIME 3.13632E+07 5.22720E+05  8712.0      363.00     0.99384    


end timestep


start timestep kper="364" kstp="1" mode="normal"

 #Stressperiod Save Options

 BEGIN READING OUTPUT CONTROL FOR STRESS PERIOD 364
      ALL TIME STEPS WILL BE SAVED
      ALL TIME STEPS WILL BE SAVED

 END READING OUTPUT CONTROL FOR STRESS PERIOD 364


 PROCESSING STORAGE PERIOD DATA
 END PROCESSING STORAGE PERIOD DATA


 STRESS PERIOD 364 IS TRANSIENT


 REUSING DRNS FROM LAST STRESS PERIOD

 REUSING RIVS FROM LAST STRESS PERIOD

 REUSING RIVS FROM LAST STRESS PERIOD

 REUSING RCHS FROM LAST STRESS PERIOD
 UBDSV06 SAVING              DRN IN MODEL GWF_1            PACKAGE GWF_1           CONNECTED TO MODEL GWF_1            PACKAGE DRN_SYS1         ON UNIT   1018 AT TIME STEP      1, STRESS PERIOD    364
 UBDSV06 SAVING              RIV IN MODEL GWF_1            PACKAGE GWF_1           CONNECTED TO MODEL GWF_1            PACKAGE RIV_SYS1         ON UNIT   1018 AT TIME STEP      1, STRESS PERIOD    364
 UBDSV06 SAVING              RIV IN MODEL GWF_1            PACKAGE GWF_1           CONNECTED TO MODEL GWF_1            PACKAGE RIV_SYS2         ON UNIT   1018 AT TIME STEP      1, STRESS PERIOD    364
 UBDSV06 SAVING              RCH IN MODEL GWF_1            PACKAGE GWF_1           CONNECTED TO MODEL GWF_1            PACKAGE RCH_MSW          ON UNIT   1018 AT TIME STEP      1, STRESS PERIOD    364

 HEAD WILL BE SAVED ON UNIT 1017 AT END OF TIME STEP    1, STRESS PERIOD  364


  VOLUME BUDGET FOR ENTIRE MODEL AT END OF TIME STEP    1, STRESS PERIOD 364
  ---------------------------------------------------------------------------------------------------

     CUMULATIVE VOLUME      L**3       RATES FOR THIS TIME STEP      L**3/T          PACKAGE NAME    
     ------------------                 ------------------------                     ----------------

           IN:                                      IN:
           ---                                      ---
              STO-SS =      235902.1092                STO-SS =           0.0000     STORAGE                          
                 DRN =           0.0000                   DRN =           0.0000     DRN_SYS1                         
                 RIV =      285108.1556                   RIV =          93.2753     RIV_SYS1                         
                 RIV =           0.0000                   RIV =           0.0000     RIV_SYS2                         
                 RCH =      514040.9435                   RCH =        9172.8170     RCH_MSW                          

            TOTAL IN =     1035051.2083              TOTAL IN =        9266.0923

          OUT:                                     OUT:
          ----                                     ----
              STO-SS =       67450.3354                STO-SS =        4736.6396     STORAGE                          
                 DRN =       19061.1890                   DRN =          83.3449     DRN_SYS1                         
                 RIV =      888040.8555                   RIV =        4210.3967     RIV_SYS1                         
                 RIV =       54010.3988                   RIV =         235.7130     RIV_SYS2                         
                 RCH =        6488.4405                   RCH =           0.0000     RCH_MSW                          

           TOTAL OUT =     1035051.2192             TOTAL OUT =        9266.0942

            IN - OUT =      -1.0827E-02              IN - OUT =      -1.9122E-03

 PERCENT DISCREPANCY =          -0.00     PERCENT DISCREPANCY =          -0.00




         TIME SUMMARY AT END OF TIME STEP    1 IN STRESS PERIOD  364
                    SECONDS     MINUTES      HOURS       DAYS        YEARS
                    -----------------------------------------------------------
   TIME STEP LENGTH  86400.      1440.0      24.000      1.0000     2.73785E-03
 STRESS PERIOD TIME  86400.      1440.0      24.000      1.0000     2.73785E-03
         TOTAL TIME 3.14496E+07 5.24160E+05  8736.0      364.00     0.99658    


end timestep


start timestep kper="365" kstp="1" mode="normal"

 #Stressperiod Save Options

 BEGIN READING OUTPUT CONTROL FOR STRESS PERIOD 365
      ALL TIME STEPS WILL BE SAVED
      ALL TIME STEPS WILL BE SAVED

 END READING OUTPUT CONTROL FOR STRESS PERIOD 365


 PROCESSING STORAGE PERIOD DATA
 END PROCESSING STORAGE PERIOD DATA


 STRESS PERIOD 365 IS TRANSIENT


 REUSING DRNS FROM LAST STRESS PERIOD

 REUSING RIVS FROM LAST STRESS PERIOD

 REUSING RIVS FROM LAST STRESS PERIOD

 REUSING RCHS FROM LAST STRESS PERIOD
 UBDSV06 SAVING              DRN IN MODEL GWF_1            PACKAGE GWF_1           CONNECTED TO MODEL GWF_1            PACKAGE DRN_SYS1         ON UNIT   1018 AT TIME STEP      1, STRESS PERIOD    365
 UBDSV06 SAVING              RIV IN MODEL GWF_1            PACKAGE GWF_1           CONNECTED TO MODEL GWF_1            PACKAGE RIV_SYS1         ON UNIT   1018 AT TIME STEP      1, STRESS PERIOD    365
 UBDSV06 SAVING              RIV IN MODEL GWF_1            PACKAGE GWF_1           CONNECTED TO MODEL GWF_1            PACKAGE RIV_SYS2         ON UNIT   1018 AT TIME STEP      1, STRESS PERIOD    365
 UBDSV06 SAVING              RCH IN MODEL GWF_1            PACKAGE GWF_1           CONNECTED TO MODEL GWF_1            PACKAGE RCH_MSW          ON UNIT   1018 AT TIME STEP      1, STRESS PERIOD    365

 HEAD WILL BE SAVED ON UNIT 1017 AT END OF TIME STEP    1, STRESS PERIOD  365


  VOLUME BUDGET FOR ENTIRE MODEL AT END OF TIME STEP    1, STRESS PERIOD 365
  ---------------------------------------------------------------------------------------------------

     CUMULATIVE VOLUME      L**3       RATES FOR THIS TIME STEP      L**3/T          PACKAGE NAME    
     ------------------                 ------------------------                     ----------------

           IN:                                      IN:
           ---                                      ---
              STO-SS =      235905.2229                STO-SS =           3.1137     STORAGE                          
                 DRN =           0.0000                   DRN =           0.0000     DRN_SYS1                         
                 RIV =      285176.9045                   RIV =          68.7489     RIV_SYS1                         
                 RIV =           0.0000                   RIV =           0.0000     RIV_SYS2                         
                 RCH =      522280.9362                   RCH =        8239.9926     RCH_MSW                          

            TOTAL IN =     1043363.0636              TOTAL IN =        8311.8552

          OUT:                                     OUT:
          ----                                     ----
              STO-SS =       71013.5452                STO-SS =        3563.2098     STORAGE                          
                 DRN =       19153.1183                   DRN =          91.9293     DRN_SYS1                         
                 RIV =      892438.8295                   RIV =        4397.9740     RIV_SYS1                         
                 RIV =       54269.1429                   RIV =         258.7441     RIV_SYS2                         
                 RCH =        6488.4405                   RCH =           0.0000     RCH_MSW                          

           TOTAL OUT =     1043363.0763             TOTAL OUT =        8311.8572

            IN - OUT =      -1.2748E-02              IN - OUT =      -1.9210E-03

 PERCENT DISCREPANCY =          -0.00     PERCENT DISCREPANCY =          -0.00




         TIME SUMMARY AT END OF TIME STEP    1 IN STRESS PERIOD  365
                    SECONDS     MINUTES      HOURS       DAYS        YEARS
                    -----------------------------------------------------------
   TIME STEP LENGTH  86400.      1440.0      24.000      1.0000     2.73785E-03
 STRESS PERIOD TIME  86400.      1440.0      24.000      1.0000     2.73785E-03
         TOTAL TIME 3.15360E+07 5.25600E+05  8760.0      365.00     0.99932    


end timestep

