
RealTime:2023-03-21;20:28:29.957

MetaSWAP version V8.1.1.2
 Reading file tiop_sim.inp
 Reading file para_sim.inp

** W12  rd_dbl   **  Empty string found for parameter dtga
                     set to default value =   0.69E-04

  ** W12  rd_rea **  Empty string found for parameter Pnadga
                     set to default value =   0.20E-02

  ** W12  rd_rea **  Empty string found for parameter fact_beta2
                     set to default value =    1.0    

  ** W12  rd_rea **  Empty string found for parameter rcsoil
                     set to default value =   0.15    

  ** W12  rd_rea **  Empty string found for parameter co2
                     set to default value =   0.40E+03

  ** W12  rd_rea **  Empty string found for parameter cfpond
                     set to default value =    1.0    

  ** W12  rd_int **  Empty string found for parameter svat_sav
                     set to default value =     0

  ** W12  rd_int **  Empty string found for parameter svat_per_bal_csv
                     set to default value =     0

  ** W12  rd_rea **  Empty string found for parameter qdr_fix
                     set to default value =    0.0    

  ** W12  rd_int **  Empty string found for parameter nxlvage_dim
                     set to default value =   150
 End reading file para_sim.inp
 Reading file mete_svat.inp           
 Reading file area_svat.inp           
Reading file unsa_svat.bda key-info
 --> number of SVATs     coupled to MODFLOW =        110
 --> number of SVATs not coupled to MODFLOW =          0
  -->max. value of vegetation index in fact_svat.inp=  19
  -->max. value of vegetation index in luse_svat.inp=  19
  -->max. value of land use   index in luse_svat.inp=  25
 Reading file infi_svat.inp
Reading file unsa_svat.bda bulk data BEGIN
Reading file unsa_svat.bda bulk data   END
 Reading file svat2swnr_roff.inp      
 Reading file time_sim.inp            
 Reading file mete_svat.inp           
  Openmete Marker 4
 Reading file scap_svat.inp           
 Reading file area_svat.inp           
 Reading file sel_key_svat_per.inp    
 Reading file sel_svat_csv.inp        

  ** W13  readt **  Time of time dependent data does not fit time interval
                     Time was   :365.00  1970
                     It becomes :  0.00  1994
 Reading time dependent input

  ** W13  readt **  Time of time dependent data does not fit time interval
                     Time was   :  1.00  1971
                     It becomes :  0.00  1994
 Reading time dependent input

  ** W13  readt **  Time of time dependent data does not fit time interval
                     Time was   :  2.00  1971
                     It becomes :  0.00  1994
 Reading time dependent input

  ** W13  readt **  Time of time dependent data does not fit time interval
                     Time was   :  3.00  1971
                     It becomes :  0.00  1994
 Reading time dependent input

  ** W13  readt **  Time of time dependent data does not fit time interval
                     Time was   :  4.00  1971
                     It becomes :  0.00  1994
 Reading time dependent input

  ** W13  readt **  Time of time dependent data does not fit time interval
                     Time was   :  5.00  1971
                     It becomes :  0.00  1994
 Reading time dependent input

  ** W13  readt **  Time of time dependent data does not fit time interval
                     Time was   :  6.00  1971
                     It becomes :  0.00  1994
 Reading time dependent input

  ** W13  readt **  Time of time dependent data does not fit time interval
                     Time was   :  7.00  1971
                     It becomes :  0.00  1994
 Reading time dependent input

  ** W13  readt **  Time of time dependent data does not fit time interval
                     Time was   :  8.00  1971
                     It becomes :  0.00  1994
 Reading time dependent input

  ** W13  readt **  Time of time dependent data does not fit time interval
                     Time was   :  9.00  1971
                     It becomes :  0.00  1994
 Reading time dependent input

  ** W13  readt **  Time of time dependent data does not fit time interval
                     Time was   : 10.00  1971
                     It becomes :  0.00  1994
 Reading time dependent input

  ** W13  readt **  Time of time dependent data does not fit time interval
                     Time was   : 11.00  1971
                     It becomes :  0.00  1994
 Reading time dependent input

  ** W13  readt **  Time of time dependent data does not fit time interval
                     Time was   : 12.00  1971
                     It becomes :  0.00  1994
 Reading time dependent input

  ** W13  readt **  Time of time dependent data does not fit time interval
                     Time was   : 13.00  1971
                     It becomes :  0.00  1994
 Reading time dependent input

  ** W13  readt **  Time of time dependent data does not fit time interval
                     Time was   : 14.00  1971
                     It becomes :  0.00  1994
 Reading time dependent input

  ** W13  readt **  Time of time dependent data does not fit time interval
                     Time was   : 15.00  1971
                     It becomes :  0.00  1994
 Reading time dependent input

  ** W13  readt **  Time of time dependent data does not fit time interval
                     Time was   : 16.00  1971
                     It becomes :  0.00  1994
 Reading time dependent input

  ** W13  readt **  Time of time dependent data does not fit time interval
                     Time was   : 17.00  1971
                     It becomes :  0.00  1994
 Reading time dependent input

  ** W13  readt **  Time of time dependent data does not fit time interval
                     Time was   : 18.00  1971
                     It becomes :  0.00  1994
 Reading time dependent input

  ** W13  readt **  Time of time dependent data does not fit time interval
                     Time was   : 19.00  1971
                     It becomes :  0.00  1994
 Reading time dependent input

  ** W13  readt **  Time of time dependent data does not fit time interval
                     Time was   : 20.00  1971
                     It becomes :  0.00  1994
 Reading time dependent input

  ** W13  readt **  Time of time dependent data does not fit time interval
                     Time was   : 21.00  1971
                     It becomes :  0.00  1994
 Reading time dependent input

  ** W13  readt **  Time of time dependent data does not fit time interval
                     Time was   : 22.00  1971
                     It becomes :  0.00  1994
 Reading time dependent input

  ** W13  readt **  Time of time dependent data does not fit time interval
                     Time was   : 23.00  1971
                     It becomes :  0.00  1994
 Reading time dependent input

  ** W13  readt **  Time of time dependent data does not fit time interval
                     Time was   : 24.00  1971
                     It becomes :  0.00  1994
 Reading time dependent input

  ** W13  readt **  Time of time dependent data does not fit time interval
                     Time was   : 25.00  1971
                     It becomes :  0.00  1994
 Reading time dependent input

  ** W13  readt **  Time of time dependent data does not fit time interval
                     Time was   : 26.00  1971
                     It becomes :  0.00  1994
 Reading time dependent input

  ** W13  readt **  Time of time dependent data does not fit time interval
                     Time was   : 27.00  1971
                     It becomes :  0.00  1994
 Reading time dependent input

  ** W13  readt **  Time of time dependent data does not fit time interval
                     Time was   : 28.00  1971
                     It becomes :  0.00  1994
 Reading time dependent input

  ** W13  readt **  Time of time dependent data does not fit time interval
                     Time was   : 29.00  1971
                     It becomes :  0.00  1994
 Reading time dependent input

  ** W13  readt **  Time of time dependent data does not fit time interval
                     Time was   : 30.00  1971
                     It becomes :  0.00  1994
 Reading time dependent input

  ** W13  readt **  Time of time dependent data does not fit time interval
                     Time was   : 31.00  1971
                     It becomes :  0.00  1994
 Reading time dependent input

  ** W13  readt **  Time of time dependent data does not fit time interval
                     Time was   : 32.00  1971
                     It becomes :  0.00  1994
 Reading time dependent input

  ** W13  readt **  Time of time dependent data does not fit time interval
                     Time was   : 33.00  1971
                     It becomes :  0.00  1994
 Reading time dependent input

  ** W13  readt **  Time of time dependent data does not fit time interval
                     Time was   : 34.00  1971
                     It becomes :  0.00  1994
 Reading time dependent input

  ** W13  readt **  Time of time dependent data does not fit time interval
                     Time was   : 35.00  1971
                     It becomes :  0.00  1994
 Reading time dependent input

  ** W13  readt **  Time of time dependent data does not fit time interval
                     Time was   : 36.00  1971
                     It becomes :  0.00  1994
 Reading time dependent input

  ** W13  readt **  Time of time dependent data does not fit time interval
                     Time was   : 37.00  1971
                     It becomes :  0.00  1994
 Reading time dependent input

  ** W13  readt **  Time of time dependent data does not fit time interval
                     Time was   : 38.00  1971
                     It becomes :  0.00  1994
 Reading time dependent input

  ** W13  readt **  Time of time dependent data does not fit time interval
                     Time was   : 39.00  1971
                     It becomes :  0.00  1994
 Reading time dependent input

  ** W13  readt **  Time of time dependent data does not fit time interval
                     Time was   : 40.00  1971
                     It becomes :  0.00  1994
 Reading time dependent input

  ** W13  readt **  Time of time dependent data does not fit time interval
                     Time was   : 41.00  1971
                     It becomes :  0.00  1994
 Reading time dependent input

  ** W13  readt **  Time of time dependent data does not fit time interval
                     Time was   : 42.00  1971
                     It becomes :  0.00  1994
 Reading time dependent input

  ** W13  readt **  Time of time dependent data does not fit time interval
                     Time was   : 43.00  1971
                     It becomes :  0.00  1994
 Reading time dependent input

  ** W13  readt **  Time of time dependent data does not fit time interval
                     Time was   : 44.00  1971
                     It becomes :  0.00  1994
 Reading time dependent input

  ** W13  readt **  Time of time dependent data does not fit time interval
                     Time was   : 45.00  1971
                     It becomes :  0.00  1994
 Reading time dependent input

  ** W13  readt **  Time of time dependent data does not fit time interval
                     Time was   : 46.00  1971
                     It becomes :  0.00  1994
 Reading time dependent input

  ** W13  readt **  Time of time dependent data does not fit time interval
                     Time was   : 47.00  1971
                     It becomes :  0.00  1994
 Reading time dependent input

  ** W13  readt **  Time of time dependent data does not fit time interval
                     Time was   : 48.00  1971
                     It becomes :  0.00  1994
 Reading time dependent input

  ** W13  readt **  Time of time dependent data does not fit time interval
                     Time was   : 49.00  1971
                     It becomes :  0.00  1994
 Reading time dependent input

  ** W13  readt **  Time of time dependent data does not fit time interval
                     Time was   : 50.00  1971
                     It becomes :  0.00  1994
 Reading time dependent input

  ** W13  readt **  Time of time dependent data does not fit time interval
                     Time was   : 51.00  1971
                     It becomes :  0.00  1994
 Reading time dependent input

  ** W13  readt **  Time of time dependent data does not fit time interval
                     Time was   : 52.00  1971
                     It becomes :  0.00  1994
 Reading time dependent input

  ** W13  readt **  Time of time dependent data does not fit time interval
                     Time was   : 53.00  1971
                     It becomes :  0.00  1994
 Reading time dependent input

  ** W13  readt **  Time of time dependent data does not fit time interval
                     Time was   : 54.00  1971
                     It becomes :  0.00  1994
 Reading time dependent input

  ** W13  readt **  Time of time dependent data does not fit time interval
                     Time was   : 55.00  1971
                     It becomes :  0.00  1994
 Reading time dependent input

  ** W13  readt **  Time of time dependent data does not fit time interval
                     Time was   : 56.00  1971
                     It becomes :  0.00  1994
 Reading time dependent input

  ** W13  readt **  Time of time dependent data does not fit time interval
                     Time was   : 57.00  1971
                     It becomes :  0.00  1994
 Reading time dependent input

  ** W13  readt **  Time of time dependent data does not fit time interval
                     Time was   : 58.00  1971
                     It becomes :  0.00  1994
 Reading time dependent input

  ** W13  readt **  Time of time dependent data does not fit time interval
                     Time was   : 59.00  1971
                     It becomes :  0.00  1994
 Reading time dependent input

  ** W13  readt **  Time of time dependent data does not fit time interval
                     Time was   : 60.00  1971
                     It becomes :  0.00  1994
 Reading time dependent input

  ** W13  readt **  Time of time dependent data does not fit time interval
                     Time was   : 61.00  1971
                     It becomes :  0.00  1994
 Reading time dependent input

  ** W13  readt **  Time of time dependent data does not fit time interval
                     Time was   : 62.00  1971
                     It becomes :  0.00  1994
 Reading time dependent input

  ** W13  readt **  Time of time dependent data does not fit time interval
                     Time was   : 63.00  1971
                     It becomes :  0.00  1994
 Reading time dependent input

  ** W13  readt **  Time of time dependent data does not fit time interval
                     Time was   : 64.00  1971
                     It becomes :  0.00  1994
 Reading time dependent input

  ** W13  readt **  Time of time dependent data does not fit time interval
                     Time was   : 65.00  1971
                     It becomes :  0.00  1994
 Reading time dependent input

  ** W13  readt **  Time of time dependent data does not fit time interval
                     Time was   : 66.00  1971
                     It becomes :  0.00  1994
 Reading time dependent input

  ** W13  readt **  Time of time dependent data does not fit time interval
                     Time was   : 67.00  1971
                     It becomes :  0.00  1994
 Reading time dependent input

  ** W13  readt **  Time of time dependent data does not fit time interval
                     Time was   : 68.00  1971
                     It becomes :  0.00  1994
 Reading time dependent input

  ** W13  readt **  Time of time dependent data does not fit time interval
                     Time was   : 69.00  1971
                     It becomes :  0.00  1994
 Reading time dependent input

  ** W13  readt **  Time of time dependent data does not fit time interval
                     Time was   : 70.00  1971
                     It becomes :  0.00  1994
 Reading time dependent input

  ** W13  readt **  Time of time dependent data does not fit time interval
                     Time was   : 71.00  1971
                     It becomes :  0.00  1994
 Reading time dependent input

  ** W13  readt **  Time of time dependent data does not fit time interval
                     Time was   : 72.00  1971
                     It becomes :  0.00  1994
 Reading time dependent input

  ** W13  readt **  Time of time dependent data does not fit time interval
                     Time was   : 73.00  1971
                     It becomes :  0.00  1994
 Reading time dependent input

  ** W13  readt **  Time of time dependent data does not fit time interval
                     Time was   : 74.00  1971
                     It becomes :  0.00  1994
 Reading time dependent input

  ** W13  readt **  Time of time dependent data does not fit time interval
                     Time was   : 75.00  1971
                     It becomes :  0.00  1994
 Reading time dependent input

  ** W13  readt **  Time of time dependent data does not fit time interval
                     Time was   : 76.00  1971
                     It becomes :  0.00  1994
 Reading time dependent input

  ** W13  readt **  Time of time dependent data does not fit time interval
                     Time was   : 77.00  1971
                     It becomes :  0.00  1994
 Reading time dependent input

  ** W13  readt **  Time of time dependent data does not fit time interval
                     Time was   : 78.00  1971
                     It becomes :  0.00  1994
 Reading time dependent input

  ** W13  readt **  Time of time dependent data does not fit time interval
                     Time was   : 79.00  1971
                     It becomes :  0.00  1994
 Reading time dependent input

  ** W13  readt **  Time of time dependent data does not fit time interval
                     Time was   : 80.00  1971
                     It becomes :  0.00  1994
 Reading time dependent input

  ** W13  readt **  Time of time dependent data does not fit time interval
                     Time was   : 81.00  1971
                     It becomes :  0.00  1994
 Reading time dependent input

  ** W13  readt **  Time of time dependent data does not fit time interval
                     Time was   : 82.00  1971
                     It becomes :  0.00  1994
 Reading time dependent input

  ** W13  readt **  Time of time dependent data does not fit time interval
                     Time was   : 83.00  1971
                     It becomes :  0.00  1994
 Reading time dependent input

  ** W13  readt **  Time of time dependent data does not fit time interval
                     Time was   : 84.00  1971
                     It becomes :  0.00  1994
 Reading time dependent input

  ** W13  readt **  Time of time dependent data does not fit time interval
                     Time was   : 85.00  1971
                     It becomes :  0.00  1994
 Reading time dependent input

  ** W13  readt **  Time of time dependent data does not fit time interval
                     Time was   : 86.00  1971
                     It becomes :  0.00  1994
 Reading time dependent input

  ** W13  readt **  Time of time dependent data does not fit time interval
                     Time was   : 87.00  1971
                     It becomes :  0.00  1994
 Reading time dependent input

  ** W13  readt **  Time of time dependent data does not fit time interval
                     Time was   : 88.00  1971
                     It becomes :  0.00  1994
 Reading time dependent input

  ** W13  readt **  Time of time dependent data does not fit time interval
                     Time was   : 89.00  1971
                     It becomes :  0.00  1994
 Reading time dependent input

  ** W13  readt **  Time of time dependent data does not fit time interval
                     Time was   : 90.00  1971
                     It becomes :  0.00  1994
 Reading time dependent input

  ** W13  readt **  Time of time dependent data does not fit time interval
                     Time was   : 91.00  1971
                     It becomes :  0.00  1994
 Reading time dependent input

  ** W13  readt **  Time of time dependent data does not fit time interval
                     Time was   : 92.00  1971
                     It becomes :  0.00  1994
 Reading time dependent input

  ** W13  readt **  Time of time dependent data does not fit time interval
                     Time was   : 93.00  1971
                     It becomes :  0.00  1994
 Reading time dependent input

  ** W13  readt **  Time of time dependent data does not fit time interval
                     Time was   : 94.00  1971
                     It becomes :  0.00  1994
 Reading time dependent input

  ** W13  readt **  Time of time dependent data does not fit time interval
                     Time was   : 95.00  1971
                     It becomes :  0.00  1994
 Reading time dependent input

  ** W13  readt **  Time of time dependent data does not fit time interval
                     Time was   : 96.00  1971
                     It becomes :  0.00  1994
 Reading time dependent input

  ** W13  readt **  Time of time dependent data does not fit time interval
                     Time was   : 97.00  1971
                     It becomes :  0.00  1994
 Reading time dependent input

  ** W13  readt **  Time of time dependent data does not fit time interval
                     Time was   : 98.00  1971
                     It becomes :  0.00  1994
 Reading time dependent input

  ** W13  readt **  Time of time dependent data does not fit time interval
                     Time was   : 99.00  1971
                     It becomes :  0.00  1994
 Reading time dependent input

  ** W13  readt **  Time of time dependent data does not fit time interval
                     Time was   :100.00  1971
                     It becomes :  0.00  1994
 Reading time dependent input

  ** W13  readt **  Time of time dependent data does not fit time interval
                     Time was   :101.00  1971
                     It becomes :  0.00  1994
 Reading time dependent input

  ** W13  readt **  Time of time dependent data does not fit time interval
                     Time was   :102.00  1971
                     It becomes :  0.00  1994
 Reading time dependent input

  ** W13  readt **  Time of time dependent data does not fit time interval
                     Time was   :103.00  1971
                     It becomes :  0.00  1994
 Reading time dependent input

  ** W13  readt **  Time of time dependent data does not fit time interval
                     Time was   :104.00  1971
                     It becomes :  0.00  1994
 Reading time dependent input

  ** W13  readt **  Time of time dependent data does not fit time interval
                     Time was   :105.00  1971
                     It becomes :  0.00  1994
 Reading time dependent input

  ** W13  readt **  Time of time dependent data does not fit time interval
                     Time was   :106.00  1971
                     It becomes :  0.00  1994
 Reading time dependent input

  ** W13  readt **  Time of time dependent data does not fit time interval
                     Time was   :107.00  1971
                     It becomes :  0.00  1994
 Reading time dependent input

  ** W13  readt **  Time of time dependent data does not fit time interval
                     Time was   :108.00  1971
                     It becomes :  0.00  1994
 Reading time dependent input

  ** W13  readt **  Time of time dependent data does not fit time interval
                     Time was   :109.00  1971
                     It becomes :  0.00  1994
 Reading time dependent input

  ** W13  readt **  Time of time dependent data does not fit time interval
                     Time was   :110.00  1971
                     It becomes :  0.00  1994
 Reading time dependent input

  ** W13  readt **  Time of time dependent data does not fit time interval
                     Time was   :111.00  1971
                     It becomes :  0.00  1994
 Reading time dependent input

  ** W13  readt **  Time of time dependent data does not fit time interval
                     Time was   :112.00  1971
                     It becomes :  0.00  1994
 Reading time dependent input

  ** W13  readt **  Time of time dependent data does not fit time interval
                     Time was   :113.00  1971
                     It becomes :  0.00  1994
 Reading time dependent input

  ** W13  readt **  Time of time dependent data does not fit time interval
                     Time was   :114.00  1971
                     It becomes :  0.00  1994
 Reading time dependent input

  ** W13  readt **  Time of time dependent data does not fit time interval
                     Time was   :115.00  1971
                     It becomes :  0.00  1994
 Reading time dependent input

  ** W13  readt **  Time of time dependent data does not fit time interval
                     Time was   :116.00  1971
                     It becomes :  0.00  1994
 Reading time dependent input

  ** W13  readt **  Time of time dependent data does not fit time interval
                     Time was   :117.00  1971
                     It becomes :  0.00  1994
 Reading time dependent input

  ** W13  readt **  Time of time dependent data does not fit time interval
                     Time was   :118.00  1971
                     It becomes :  0.00  1994
 Reading time dependent input

  ** W13  readt **  Time of time dependent data does not fit time interval
                     Time was   :119.00  1971
                     It becomes :  0.00  1994
 Reading time dependent input

  ** W13  readt **  Time of time dependent data does not fit time interval
                     Time was   :120.00  1971
                     It becomes :  0.00  1994
 Reading time dependent input

  ** W13  readt **  Time of time dependent data does not fit time interval
                     Time was   :121.00  1971
                     It becomes :  0.00  1994
 Reading time dependent input

  ** W13  readt **  Time of time dependent data does not fit time interval
                     Time was   :122.00  1971
                     It becomes :  0.00  1994
 Reading time dependent input

  ** W13  readt **  Time of time dependent data does not fit time interval
                     Time was   :123.00  1971
                     It becomes :  0.00  1994
 Reading time dependent input

  ** W13  readt **  Time of time dependent data does not fit time interval
                     Time was   :124.00  1971
                     It becomes :  0.00  1994
 Reading time dependent input

  ** W13  readt **  Time of time dependent data does not fit time interval
                     Time was   :125.00  1971
                     It becomes :  0.00  1994
 Reading time dependent input

  ** W13  readt **  Time of time dependent data does not fit time interval
                     Time was   :126.00  1971
                     It becomes :  0.00  1994
 Reading time dependent input

  ** W13  readt **  Time of time dependent data does not fit time interval
                     Time was   :127.00  1971
                     It becomes :  0.00  1994
 Reading time dependent input

  ** W13  readt **  Time of time dependent data does not fit time interval
                     Time was   :128.00  1971
                     It becomes :  0.00  1994
 Reading time dependent input

  ** W13  readt **  Time of time dependent data does not fit time interval
                     Time was   :129.00  1971
                     It becomes :  0.00  1994
 Reading time dependent input

  ** W13  readt **  Time of time dependent data does not fit time interval
                     Time was   :130.00  1971
                     It becomes :  0.00  1994
 Reading time dependent input

  ** W13  readt **  Time of time dependent data does not fit time interval
                     Time was   :131.00  1971
                     It becomes :  0.00  1994
 Reading time dependent input

  ** W13  readt **  Time of time dependent data does not fit time interval
                     Time was   :132.00  1971
                     It becomes :  0.00  1994
 Reading time dependent input

  ** W13  readt **  Time of time dependent data does not fit time interval
                     Time was   :133.00  1971
                     It becomes :  0.00  1994
 Reading time dependent input

  ** W13  readt **  Time of time dependent data does not fit time interval
                     Time was   :134.00  1971
                     It becomes :  0.00  1994
 Reading time dependent input

  ** W13  readt **  Time of time dependent data does not fit time interval
                     Time was   :135.00  1971
                     It becomes :  0.00  1994
 Reading time dependent input

  ** W13  readt **  Time of time dependent data does not fit time interval
                     Time was   :136.00  1971
                     It becomes :  0.00  1994
 Reading time dependent input

  ** W13  readt **  Time of time dependent data does not fit time interval
                     Time was   :137.00  1971
                     It becomes :  0.00  1994
 Reading time dependent input

  ** W13  readt **  Time of time dependent data does not fit time interval
                     Time was   :138.00  1971
                     It becomes :  0.00  1994
 Reading time dependent input

  ** W13  readt **  Time of time dependent data does not fit time interval
                     Time was   :139.00  1971
                     It becomes :  0.00  1994
 Reading time dependent input

  ** W13  readt **  Time of time dependent data does not fit time interval
                     Time was   :140.00  1971
                     It becomes :  0.00  1994
 Reading time dependent input

  ** W13  readt **  Time of time dependent data does not fit time interval
                     Time was   :141.00  1971
                     It becomes :  0.00  1994
 Reading time dependent input

  ** W13  readt **  Time of time dependent data does not fit time interval
                     Time was   :142.00  1971
                     It becomes :  0.00  1994
 Reading time dependent input

  ** W13  readt **  Time of time dependent data does not fit time interval
                     Time was   :143.00  1971
                     It becomes :  0.00  1994
 Reading time dependent input

  ** W13  readt **  Time of time dependent data does not fit time interval
                     Time was   :144.00  1971
                     It becomes :  0.00  1994
 Reading time dependent input

  ** W13  readt **  Time of time dependent data does not fit time interval
                     Time was   :145.00  1971
                     It becomes :  0.00  1994
 Reading time dependent input

  ** W13  readt **  Time of time dependent data does not fit time interval
                     Time was   :146.00  1971
                     It becomes :  0.00  1994
 Reading time dependent input

  ** W13  readt **  Time of time dependent data does not fit time interval
                     Time was   :147.00  1971
                     It becomes :  0.00  1994
 Reading time dependent input

  ** W13  readt **  Time of time dependent data does not fit time interval
                     Time was   :148.00  1971
                     It becomes :  0.00  1994
 Reading time dependent input

  ** W13  readt **  Time of time dependent data does not fit time interval
                     Time was   :149.00  1971
                     It becomes :  0.00  1994
 Reading time dependent input

  ** W13  readt **  Time of time dependent data does not fit time interval
                     Time was   :150.00  1971
                     It becomes :  0.00  1994
 Reading time dependent input

  ** W13  readt **  Time of time dependent data does not fit time interval
                     Time was   :151.00  1971
                     It becomes :  0.00  1994
 Reading time dependent input

  ** W13  readt **  Time of time dependent data does not fit time interval
                     Time was   :152.00  1971
                     It becomes :  0.00  1994
 Reading time dependent input

  ** W13  readt **  Time of time dependent data does not fit time interval
                     Time was   :153.00  1971
                     It becomes :  0.00  1994
 Reading time dependent input

  ** W13  readt **  Time of time dependent data does not fit time interval
                     Time was   :154.00  1971
                     It becomes :  0.00  1994
 Reading time dependent input

  ** W13  readt **  Time of time dependent data does not fit time interval
                     Time was   :155.00  1971
                     It becomes :  0.00  1994
 Reading time dependent input

  ** W13  readt **  Time of time dependent data does not fit time interval
                     Time was   :156.00  1971
                     It becomes :  0.00  1994
 Reading time dependent input

  ** W13  readt **  Time of time dependent data does not fit time interval
                     Time was   :157.00  1971
                     It becomes :  0.00  1994
 Reading time dependent input

  ** W13  readt **  Time of time dependent data does not fit time interval
                     Time was   :158.00  1971
                     It becomes :  0.00  1994
 Reading time dependent input

  ** W13  readt **  Time of time dependent data does not fit time interval
                     Time was   :159.00  1971
                     It becomes :  0.00  1994
 Reading time dependent input

  ** W13  readt **  Time of time dependent data does not fit time interval
                     Time was   :160.00  1971
                     It becomes :  0.00  1994
 Reading time dependent input

  ** W13  readt **  Time of time dependent data does not fit time interval
                     Time was   :161.00  1971
                     It becomes :  0.00  1994
 Reading time dependent input

  ** W13  readt **  Time of time dependent data does not fit time interval
                     Time was   :162.00  1971
                     It becomes :  0.00  1994
 Reading time dependent input

  ** W13  readt **  Time of time dependent data does not fit time interval
                     Time was   :163.00  1971
                     It becomes :  0.00  1994
 Reading time dependent input

  ** W13  readt **  Time of time dependent data does not fit time interval
                     Time was   :164.00  1971
                     It becomes :  0.00  1994
 Reading time dependent input

  ** W13  readt **  Time of time dependent data does not fit time interval
                     Time was   :165.00  1971
                     It becomes :  0.00  1994
 Reading time dependent input

  ** W13  readt **  Time of time dependent data does not fit time interval
                     Time was   :166.00  1971
                     It becomes :  0.00  1994
 Reading time dependent input

  ** W13  readt **  Time of time dependent data does not fit time interval
                     Time was   :167.00  1971
                     It becomes :  0.00  1994
 Reading time dependent input

  ** W13  readt **  Time of time dependent data does not fit time interval
                     Time was   :168.00  1971
                     It becomes :  0.00  1994
 Reading time dependent input

  ** W13  readt **  Time of time dependent data does not fit time interval
                     Time was   :169.00  1971
                     It becomes :  0.00  1994
 Reading time dependent input

  ** W13  readt **  Time of time dependent data does not fit time interval
                     Time was   :170.00  1971
                     It becomes :  0.00  1994
 Reading time dependent input

  ** W13  readt **  Time of time dependent data does not fit time interval
                     Time was   :171.00  1971
                     It becomes :  0.00  1994
 Reading time dependent input

  ** W13  readt **  Time of time dependent data does not fit time interval
                     Time was   :172.00  1971
                     It becomes :  0.00  1994
 Reading time dependent input

  ** W13  readt **  Time of time dependent data does not fit time interval
                     Time was   :173.00  1971
                     It becomes :  0.00  1994
 Reading time dependent input

  ** W13  readt **  Time of time dependent data does not fit time interval
                     Time was   :174.00  1971
                     It becomes :  0.00  1994
 Reading time dependent input

  ** W13  readt **  Time of time dependent data does not fit time interval
                     Time was   :175.00  1971
                     It becomes :  0.00  1994
 Reading time dependent input

  ** W13  readt **  Time of time dependent data does not fit time interval
                     Time was   :176.00  1971
                     It becomes :  0.00  1994
 Reading time dependent input

  ** W13  readt **  Time of time dependent data does not fit time interval
                     Time was   :177.00  1971
                     It becomes :  0.00  1994
 Reading time dependent input

  ** W13  readt **  Time of time dependent data does not fit time interval
                     Time was   :178.00  1971
                     It becomes :  0.00  1994
 Reading time dependent input

  ** W13  readt **  Time of time dependent data does not fit time interval
                     Time was   :179.00  1971
                     It becomes :  0.00  1994
 Reading time dependent input

  ** W13  readt **  Time of time dependent data does not fit time interval
                     Time was   :180.00  1971
                     It becomes :  0.00  1994
 Reading time dependent input

  ** W13  readt **  Time of time dependent data does not fit time interval
                     Time was   :181.00  1971
                     It becomes :  0.00  1994
 Reading time dependent input

  ** W13  readt **  Time of time dependent data does not fit time interval
                     Time was   :182.00  1971
                     It becomes :  0.00  1994
 Reading time dependent input

  ** W13  readt **  Time of time dependent data does not fit time interval
                     Time was   :183.00  1971
                     It becomes :  0.00  1994
 Reading time dependent input

  ** W13  readt **  Time of time dependent data does not fit time interval
                     Time was   :184.00  1971
                     It becomes :  0.00  1994
 Reading time dependent input

  ** W13  readt **  Time of time dependent data does not fit time interval
                     Time was   :185.00  1971
                     It becomes :  0.00  1994
 Reading time dependent input

  ** W13  readt **  Time of time dependent data does not fit time interval
                     Time was   :186.00  1971
                     It becomes :  0.00  1994
 Reading time dependent input

  ** W13  readt **  Time of time dependent data does not fit time interval
                     Time was   :187.00  1971
                     It becomes :  0.00  1994
 Reading time dependent input

  ** W13  readt **  Time of time dependent data does not fit time interval
                     Time was   :188.00  1971
                     It becomes :  0.00  1994
 Reading time dependent input

  ** W13  readt **  Time of time dependent data does not fit time interval
                     Time was   :189.00  1971
                     It becomes :  0.00  1994
 Reading time dependent input

  ** W13  readt **  Time of time dependent data does not fit time interval
                     Time was   :190.00  1971
                     It becomes :  0.00  1994
 Reading time dependent input

  ** W13  readt **  Time of time dependent data does not fit time interval
                     Time was   :191.00  1971
                     It becomes :  0.00  1994
 Reading time dependent input

  ** W13  readt **  Time of time dependent data does not fit time interval
                     Time was   :192.00  1971
                     It becomes :  0.00  1994
 Reading time dependent input

  ** W13  readt **  Time of time dependent data does not fit time interval
                     Time was   :193.00  1971
                     It becomes :  0.00  1994
 Reading time dependent input

  ** W13  readt **  Time of time dependent data does not fit time interval
                     Time was   :194.00  1971
                     It becomes :  0.00  1994
 Reading time dependent input

  ** W13  readt **  Time of time dependent data does not fit time interval
                     Time was   :195.00  1971
                     It becomes :  0.00  1994
 Reading time dependent input

  ** W13  readt **  Time of time dependent data does not fit time interval
                     Time was   :196.00  1971
                     It becomes :  0.00  1994
 Reading time dependent input

  ** W13  readt **  Time of time dependent data does not fit time interval
                     Time was   :197.00  1971
                     It becomes :  0.00  1994
 Reading time dependent input

  ** W13  readt **  Time of time dependent data does not fit time interval
                     Time was   :198.00  1971
                     It becomes :  0.00  1994
 Reading time dependent input

  ** W13  readt **  Time of time dependent data does not fit time interval
                     Time was   :199.00  1971
                     It becomes :  0.00  1994
 Reading time dependent input

  ** W13  readt **  Time of time dependent data does not fit time interval
                     Time was   :200.00  1971
                     It becomes :  0.00  1994
 Reading time dependent input

  ** W13  readt **  Time of time dependent data does not fit time interval
                     Time was   :201.00  1971
                     It becomes :  0.00  1994
 Reading time dependent input

  ** W13  readt **  Time of time dependent data does not fit time interval
                     Time was   :202.00  1971
                     It becomes :  0.00  1994
 Reading time dependent input

  ** W13  readt **  Time of time dependent data does not fit time interval
                     Time was   :203.00  1971
                     It becomes :  0.00  1994
 Reading time dependent input

  ** W13  readt **  Time of time dependent data does not fit time interval
                     Time was   :204.00  1971
                     It becomes :  0.00  1994
 Reading time dependent input

  ** W13  readt **  Time of time dependent data does not fit time interval
                     Time was   :205.00  1971
                     It becomes :  0.00  1994
 Reading time dependent input

  ** W13  readt **  Time of time dependent data does not fit time interval
                     Time was   :206.00  1971
                     It becomes :  0.00  1994
 Reading time dependent input

  ** W13  readt **  Time of time dependent data does not fit time interval
                     Time was   :207.00  1971
                     It becomes :  0.00  1994
 Reading time dependent input

  ** W13  readt **  Time of time dependent data does not fit time interval
                     Time was   :208.00  1971
                     It becomes :  0.00  1994
 Reading time dependent input

  ** W13  readt **  Time of time dependent data does not fit time interval
                     Time was   :209.00  1971
                     It becomes :  0.00  1994
 Reading time dependent input

  ** W13  readt **  Time of time dependent data does not fit time interval
                     Time was   :210.00  1971
                     It becomes :  0.00  1994
 Reading time dependent input

  ** W13  readt **  Time of time dependent data does not fit time interval
                     Time was   :211.00  1971
                     It becomes :  0.00  1994
 Reading time dependent input

  ** W13  readt **  Time of time dependent data does not fit time interval
                     Time was   :212.00  1971
                     It becomes :  0.00  1994
 Reading time dependent input

  ** W13  readt **  Time of time dependent data does not fit time interval
                     Time was   :213.00  1971
                     It becomes :  0.00  1994
 Reading time dependent input

  ** W13  readt **  Time of time dependent data does not fit time interval
                     Time was   :214.00  1971
                     It becomes :  0.00  1994
 Reading time dependent input

  ** W13  readt **  Time of time dependent data does not fit time interval
                     Time was   :215.00  1971
                     It becomes :  0.00  1994
 Reading time dependent input

  ** W13  readt **  Time of time dependent data does not fit time interval
                     Time was   :216.00  1971
                     It becomes :  0.00  1994
 Reading time dependent input

  ** W13  readt **  Time of time dependent data does not fit time interval
                     Time was   :217.00  1971
                     It becomes :  0.00  1994
 Reading time dependent input

  ** W13  readt **  Time of time dependent data does not fit time interval
                     Time was   :218.00  1971
                     It becomes :  0.00  1994
 Reading time dependent input

  ** W13  readt **  Time of time dependent data does not fit time interval
                     Time was   :219.00  1971
                     It becomes :  0.00  1994
 Reading time dependent input

  ** W13  readt **  Time of time dependent data does not fit time interval
                     Time was   :220.00  1971
                     It becomes :  0.00  1994
 Reading time dependent input

  ** W13  readt **  Time of time dependent data does not fit time interval
                     Time was   :221.00  1971
                     It becomes :  0.00  1994
 Reading time dependent input

  ** W13  readt **  Time of time dependent data does not fit time interval
                     Time was   :222.00  1971
                     It becomes :  0.00  1994
 Reading time dependent input

  ** W13  readt **  Time of time dependent data does not fit time interval
                     Time was   :223.00  1971
                     It becomes :  0.00  1994
 Reading time dependent input

  ** W13  readt **  Time of time dependent data does not fit time interval
                     Time was   :224.00  1971
                     It becomes :  0.00  1994
 Reading time dependent input

  ** W13  readt **  Time of time dependent data does not fit time interval
                     Time was   :225.00  1971
                     It becomes :  0.00  1994
 Reading time dependent input

  ** W13  readt **  Time of time dependent data does not fit time interval
                     Time was   :226.00  1971
                     It becomes :  0.00  1994
 Reading time dependent input

  ** W13  readt **  Time of time dependent data does not fit time interval
                     Time was   :227.00  1971
                     It becomes :  0.00  1994
 Reading time dependent input

  ** W13  readt **  Time of time dependent data does not fit time interval
                     Time was   :228.00  1971
                     It becomes :  0.00  1994
 Reading time dependent input

  ** W13  readt **  Time of time dependent data does not fit time interval
                     Time was   :229.00  1971
                     It becomes :  0.00  1994
 Reading time dependent input

  ** W13  readt **  Time of time dependent data does not fit time interval
                     Time was   :230.00  1971
                     It becomes :  0.00  1994
 Reading time dependent input

  ** W13  readt **  Time of time dependent data does not fit time interval
                     Time was   :231.00  1971
                     It becomes :  0.00  1994
 Reading time dependent input

  ** W13  readt **  Time of time dependent data does not fit time interval
                     Time was   :232.00  1971
                     It becomes :  0.00  1994
 Reading time dependent input

  ** W13  readt **  Time of time dependent data does not fit time interval
                     Time was   :233.00  1971
                     It becomes :  0.00  1994
 Reading time dependent input

  ** W13  readt **  Time of time dependent data does not fit time interval
                     Time was   :234.00  1971
                     It becomes :  0.00  1994
 Reading time dependent input

  ** W13  readt **  Time of time dependent data does not fit time interval
                     Time was   :235.00  1971
                     It becomes :  0.00  1994
 Reading time dependent input

  ** W13  readt **  Time of time dependent data does not fit time interval
                     Time was   :236.00  1971
                     It becomes :  0.00  1994
 Reading time dependent input

  ** W13  readt **  Time of time dependent data does not fit time interval
                     Time was   :237.00  1971
                     It becomes :  0.00  1994
 Reading time dependent input

  ** W13  readt **  Time of time dependent data does not fit time interval
                     Time was   :238.00  1971
                     It becomes :  0.00  1994
 Reading time dependent input

  ** W13  readt **  Time of time dependent data does not fit time interval
                     Time was   :239.00  1971
                     It becomes :  0.00  1994
 Reading time dependent input

  ** W13  readt **  Time of time dependent data does not fit time interval
                     Time was   :240.00  1971
                     It becomes :  0.00  1994
 Reading time dependent input

  ** W13  readt **  Time of time dependent data does not fit time interval
                     Time was   :241.00  1971
                     It becomes :  0.00  1994
 Reading time dependent input

  ** W13  readt **  Time of time dependent data does not fit time interval
                     Time was   :242.00  1971
                     It becomes :  0.00  1994
 Reading time dependent input

  ** W13  readt **  Time of time dependent data does not fit time interval
                     Time was   :243.00  1971
                     It becomes :  0.00  1994
 Reading time dependent input

  ** W13  readt **  Time of time dependent data does not fit time interval
                     Time was   :244.00  1971
                     It becomes :  0.00  1994
 Reading time dependent input

  ** W13  readt **  Time of time dependent data does not fit time interval
                     Time was   :245.00  1971
                     It becomes :  0.00  1994
 Reading time dependent input

  ** W13  readt **  Time of time dependent data does not fit time interval
                     Time was   :246.00  1971
                     It becomes :  0.00  1994
 Reading time dependent input

  ** W13  readt **  Time of time dependent data does not fit time interval
                     Time was   :247.00  1971
                     It becomes :  0.00  1994
 Reading time dependent input

  ** W13  readt **  Time of time dependent data does not fit time interval
                     Time was   :248.00  1971
                     It becomes :  0.00  1994
 Reading time dependent input

  ** W13  readt **  Time of time dependent data does not fit time interval
                     Time was   :249.00  1971
                     It becomes :  0.00  1994
 Reading time dependent input

  ** W13  readt **  Time of time dependent data does not fit time interval
                     Time was   :250.00  1971
                     It becomes :  0.00  1994
 Reading time dependent input

  ** W13  readt **  Time of time dependent data does not fit time interval
                     Time was   :251.00  1971
                     It becomes :  0.00  1994
 Reading time dependent input

  ** W13  readt **  Time of time dependent data does not fit time interval
                     Time was   :252.00  1971
                     It becomes :  0.00  1994
 Reading time dependent input

  ** W13  readt **  Time of time dependent data does not fit time interval
                     Time was   :253.00  1971
                     It becomes :  0.00  1994
 Reading time dependent input

  ** W13  readt **  Time of time dependent data does not fit time interval
                     Time was   :254.00  1971
                     It becomes :  0.00  1994
 Reading time dependent input

  ** W13  readt **  Time of time dependent data does not fit time interval
                     Time was   :255.00  1971
                     It becomes :  0.00  1994
 Reading time dependent input

  ** W13  readt **  Time of time dependent data does not fit time interval
                     Time was   :256.00  1971
                     It becomes :  0.00  1994
 Reading time dependent input

  ** W13  readt **  Time of time dependent data does not fit time interval
                     Time was   :257.00  1971
                     It becomes :  0.00  1994
 Reading time dependent input

  ** W13  readt **  Time of time dependent data does not fit time interval
                     Time was   :258.00  1971
                     It becomes :  0.00  1994
 Reading time dependent input

  ** W13  readt **  Time of time dependent data does not fit time interval
                     Time was   :259.00  1971
                     It becomes :  0.00  1994
 Reading time dependent input

  ** W13  readt **  Time of time dependent data does not fit time interval
                     Time was   :260.00  1971
                     It becomes :  0.00  1994
 Reading time dependent input

  ** W13  readt **  Time of time dependent data does not fit time interval
                     Time was   :261.00  1971
                     It becomes :  0.00  1994
 Reading time dependent input

  ** W13  readt **  Time of time dependent data does not fit time interval
                     Time was   :262.00  1971
                     It becomes :  0.00  1994
 Reading time dependent input

  ** W13  readt **  Time of time dependent data does not fit time interval
                     Time was   :263.00  1971
                     It becomes :  0.00  1994
 Reading time dependent input

  ** W13  readt **  Time of time dependent data does not fit time interval
                     Time was   :264.00  1971
                     It becomes :  0.00  1994
 Reading time dependent input

  ** W13  readt **  Time of time dependent data does not fit time interval
                     Time was   :265.00  1971
                     It becomes :  0.00  1994
 Reading time dependent input

  ** W13  readt **  Time of time dependent data does not fit time interval
                     Time was   :266.00  1971
                     It becomes :  0.00  1994
 Reading time dependent input

  ** W13  readt **  Time of time dependent data does not fit time interval
                     Time was   :267.00  1971
                     It becomes :  0.00  1994
 Reading time dependent input

  ** W13  readt **  Time of time dependent data does not fit time interval
                     Time was   :268.00  1971
                     It becomes :  0.00  1994
 Reading time dependent input

  ** W13  readt **  Time of time dependent data does not fit time interval
                     Time was   :269.00  1971
                     It becomes :  0.00  1994
 Reading time dependent input

  ** W13  readt **  Time of time dependent data does not fit time interval
                     Time was   :270.00  1971
                     It becomes :  0.00  1994
 Reading time dependent input

  ** W13  readt **  Time of time dependent data does not fit time interval
                     Time was   :271.00  1971
                     It becomes :  0.00  1994
 Reading time dependent input

  ** W13  readt **  Time of time dependent data does not fit time interval
                     Time was   :272.00  1971
                     It becomes :  0.00  1994
 Reading time dependent input

  ** W13  readt **  Time of time dependent data does not fit time interval
                     Time was   :273.00  1971
                     It becomes :  0.00  1994
 Reading time dependent input

  ** W13  readt **  Time of time dependent data does not fit time interval
                     Time was   :274.00  1971
                     It becomes :  0.00  1994
 Reading time dependent input

  ** W13  readt **  Time of time dependent data does not fit time interval
                     Time was   :275.00  1971
                     It becomes :  0.00  1994
 Reading time dependent input

  ** W13  readt **  Time of time dependent data does not fit time interval
                     Time was   :276.00  1971
                     It becomes :  0.00  1994
 Reading time dependent input

  ** W13  readt **  Time of time dependent data does not fit time interval
                     Time was   :277.00  1971
                     It becomes :  0.00  1994
 Reading time dependent input

  ** W13  readt **  Time of time dependent data does not fit time interval
                     Time was   :278.00  1971
                     It becomes :  0.00  1994
 Reading time dependent input

  ** W13  readt **  Time of time dependent data does not fit time interval
                     Time was   :279.00  1971
                     It becomes :  0.00  1994
 Reading time dependent input

  ** W13  readt **  Time of time dependent data does not fit time interval
                     Time was   :280.00  1971
                     It becomes :  0.00  1994
 Reading time dependent input

  ** W13  readt **  Time of time dependent data does not fit time interval
                     Time was   :281.00  1971
                     It becomes :  0.00  1994
 Reading time dependent input

  ** W13  readt **  Time of time dependent data does not fit time interval
                     Time was   :282.00  1971
                     It becomes :  0.00  1994
 Reading time dependent input

  ** W13  readt **  Time of time dependent data does not fit time interval
                     Time was   :283.00  1971
                     It becomes :  0.00  1994
 Reading time dependent input

  ** W13  readt **  Time of time dependent data does not fit time interval
                     Time was   :284.00  1971
                     It becomes :  0.00  1994
 Reading time dependent input

  ** W13  readt **  Time of time dependent data does not fit time interval
                     Time was   :285.00  1971
                     It becomes :  0.00  1994
 Reading time dependent input

  ** W13  readt **  Time of time dependent data does not fit time interval
                     Time was   :286.00  1971
                     It becomes :  0.00  1994
 Reading time dependent input

  ** W13  readt **  Time of time dependent data does not fit time interval
                     Time was   :287.00  1971
                     It becomes :  0.00  1994
 Reading time dependent input

  ** W13  readt **  Time of time dependent data does not fit time interval
                     Time was   :288.00  1971
                     It becomes :  0.00  1994
 Reading time dependent input

  ** W13  readt **  Time of time dependent data does not fit time interval
                     Time was   :289.00  1971
                     It becomes :  0.00  1994
 Reading time dependent input

  ** W13  readt **  Time of time dependent data does not fit time interval
                     Time was   :290.00  1971
                     It becomes :  0.00  1994
 Reading time dependent input

  ** W13  readt **  Time of time dependent data does not fit time interval
                     Time was   :291.00  1971
                     It becomes :  0.00  1994
 Reading time dependent input

  ** W13  readt **  Time of time dependent data does not fit time interval
                     Time was   :292.00  1971
                     It becomes :  0.00  1994
 Reading time dependent input

  ** W13  readt **  Time of time dependent data does not fit time interval
                     Time was   :293.00  1971
                     It becomes :  0.00  1994
 Reading time dependent input

  ** W13  readt **  Time of time dependent data does not fit time interval
                     Time was   :294.00  1971
                     It becomes :  0.00  1994
 Reading time dependent input

  ** W13  readt **  Time of time dependent data does not fit time interval
                     Time was   :295.00  1971
                     It becomes :  0.00  1994
 Reading time dependent input

  ** W13  readt **  Time of time dependent data does not fit time interval
                     Time was   :296.00  1971
                     It becomes :  0.00  1994
 Reading time dependent input

  ** W13  readt **  Time of time dependent data does not fit time interval
                     Time was   :297.00  1971
                     It becomes :  0.00  1994
 Reading time dependent input

  ** W13  readt **  Time of time dependent data does not fit time interval
                     Time was   :298.00  1971
                     It becomes :  0.00  1994
 Reading time dependent input

  ** W13  readt **  Time of time dependent data does not fit time interval
                     Time was   :299.00  1971
                     It becomes :  0.00  1994
 Reading time dependent input

  ** W13  readt **  Time of time dependent data does not fit time interval
                     Time was   :300.00  1971
                     It becomes :  0.00  1994
 Reading time dependent input

  ** W13  readt **  Time of time dependent data does not fit time interval
                     Time was   :301.00  1971
                     It becomes :  0.00  1994
 Reading time dependent input

  ** W13  readt **  Time of time dependent data does not fit time interval
                     Time was   :302.00  1971
                     It becomes :  0.00  1994
 Reading time dependent input

  ** W13  readt **  Time of time dependent data does not fit time interval
                     Time was   :303.00  1971
                     It becomes :  0.00  1994
 Reading time dependent input

  ** W13  readt **  Time of time dependent data does not fit time interval
                     Time was   :304.00  1971
                     It becomes :  0.00  1994
 Reading time dependent input

  ** W13  readt **  Time of time dependent data does not fit time interval
                     Time was   :305.00  1971
                     It becomes :  0.00  1994
 Reading time dependent input

  ** W13  readt **  Time of time dependent data does not fit time interval
                     Time was   :306.00  1971
                     It becomes :  0.00  1994
 Reading time dependent input

  ** W13  readt **  Time of time dependent data does not fit time interval
                     Time was   :307.00  1971
                     It becomes :  0.00  1994
 Reading time dependent input

  ** W13  readt **  Time of time dependent data does not fit time interval
                     Time was   :308.00  1971
                     It becomes :  0.00  1994
 Reading time dependent input

  ** W13  readt **  Time of time dependent data does not fit time interval
                     Time was   :309.00  1971
                     It becomes :  0.00  1994
 Reading time dependent input

  ** W13  readt **  Time of time dependent data does not fit time interval
                     Time was   :310.00  1971
                     It becomes :  0.00  1994
 Reading time dependent input

  ** W13  readt **  Time of time dependent data does not fit time interval
                     Time was   :311.00  1971
                     It becomes :  0.00  1994
 Reading time dependent input

  ** W13  readt **  Time of time dependent data does not fit time interval
                     Time was   :312.00  1971
                     It becomes :  0.00  1994
 Reading time dependent input

  ** W13  readt **  Time of time dependent data does not fit time interval
                     Time was   :313.00  1971
                     It becomes :  0.00  1994
 Reading time dependent input

  ** W13  readt **  Time of time dependent data does not fit time interval
                     Time was   :314.00  1971
                     It becomes :  0.00  1994
 Reading time dependent input

  ** W13  readt **  Time of time dependent data does not fit time interval
                     Time was   :315.00  1971
                     It becomes :  0.00  1994
 Reading time dependent input

  ** W13  readt **  Time of time dependent data does not fit time interval
                     Time was   :316.00  1971
                     It becomes :  0.00  1994
 Reading time dependent input

  ** W13  readt **  Time of time dependent data does not fit time interval
                     Time was   :317.00  1971
                     It becomes :  0.00  1994
 Reading time dependent input

  ** W13  readt **  Time of time dependent data does not fit time interval
                     Time was   :318.00  1971
                     It becomes :  0.00  1994
 Reading time dependent input

  ** W13  readt **  Time of time dependent data does not fit time interval
                     Time was   :319.00  1971
                     It becomes :  0.00  1994
 Reading time dependent input

  ** W13  readt **  Time of time dependent data does not fit time interval
                     Time was   :320.00  1971
                     It becomes :  0.00  1994
 Reading time dependent input

  ** W13  readt **  Time of time dependent data does not fit time interval
                     Time was   :321.00  1971
                     It becomes :  0.00  1994
 Reading time dependent input

  ** W13  readt **  Time of time dependent data does not fit time interval
                     Time was   :322.00  1971
                     It becomes :  0.00  1994
 Reading time dependent input

  ** W13  readt **  Time of time dependent data does not fit time interval
                     Time was   :323.00  1971
                     It becomes :  0.00  1994
 Reading time dependent input

  ** W13  readt **  Time of time dependent data does not fit time interval
                     Time was   :324.00  1971
                     It becomes :  0.00  1994
 Reading time dependent input

  ** W13  readt **  Time of time dependent data does not fit time interval
                     Time was   :325.00  1971
                     It becomes :  0.00  1994
 Reading time dependent input

  ** W13  readt **  Time of time dependent data does not fit time interval
                     Time was   :326.00  1971
                     It becomes :  0.00  1994
 Reading time dependent input

  ** W13  readt **  Time of time dependent data does not fit time interval
                     Time was   :327.00  1971
                     It becomes :  0.00  1994
 Reading time dependent input

  ** W13  readt **  Time of time dependent data does not fit time interval
                     Time was   :328.00  1971
                     It becomes :  0.00  1994
 Reading time dependent input

  ** W13  readt **  Time of time dependent data does not fit time interval
                     Time was   :329.00  1971
                     It becomes :  0.00  1994
 Reading time dependent input

  ** W13  readt **  Time of time dependent data does not fit time interval
                     Time was   :330.00  1971
                     It becomes :  0.00  1994
 Reading time dependent input

  ** W13  readt **  Time of time dependent data does not fit time interval
                     Time was   :331.00  1971
                     It becomes :  0.00  1994
 Reading time dependent input

  ** W13  readt **  Time of time dependent data does not fit time interval
                     Time was   :332.00  1971
                     It becomes :  0.00  1994
 Reading time dependent input

  ** W13  readt **  Time of time dependent data does not fit time interval
                     Time was   :333.00  1971
                     It becomes :  0.00  1994
 Reading time dependent input

  ** W13  readt **  Time of time dependent data does not fit time interval
                     Time was   :334.00  1971
                     It becomes :  0.00  1994
 Reading time dependent input

  ** W13  readt **  Time of time dependent data does not fit time interval
                     Time was   :335.00  1971
                     It becomes :  0.00  1994
 Reading time dependent input

  ** W13  readt **  Time of time dependent data does not fit time interval
                     Time was   :336.00  1971
                     It becomes :  0.00  1994
 Reading time dependent input

  ** W13  readt **  Time of time dependent data does not fit time interval
                     Time was   :337.00  1971
                     It becomes :  0.00  1994
 Reading time dependent input

  ** W13  readt **  Time of time dependent data does not fit time interval
                     Time was   :338.00  1971
                     It becomes :  0.00  1994
 Reading time dependent input

  ** W13  readt **  Time of time dependent data does not fit time interval
                     Time was   :339.00  1971
                     It becomes :  0.00  1994
 Reading time dependent input

  ** W13  readt **  Time of time dependent data does not fit time interval
                     Time was   :340.00  1971
                     It becomes :  0.00  1994
 Reading time dependent input

  ** W13  readt **  Time of time dependent data does not fit time interval
                     Time was   :341.00  1971
                     It becomes :  0.00  1994
 Reading time dependent input

  ** W13  readt **  Time of time dependent data does not fit time interval
                     Time was   :342.00  1971
                     It becomes :  0.00  1994
 Reading time dependent input

  ** W13  readt **  Time of time dependent data does not fit time interval
                     Time was   :343.00  1971
                     It becomes :  0.00  1994
 Reading time dependent input

  ** W13  readt **  Time of time dependent data does not fit time interval
                     Time was   :344.00  1971
                     It becomes :  0.00  1994
 Reading time dependent input

  ** W13  readt **  Time of time dependent data does not fit time interval
                     Time was   :345.00  1971
                     It becomes :  0.00  1994
 Reading time dependent input

  ** W13  readt **  Time of time dependent data does not fit time interval
                     Time was   :346.00  1971
                     It becomes :  0.00  1994
 Reading time dependent input

  ** W13  readt **  Time of time dependent data does not fit time interval
                     Time was   :347.00  1971
                     It becomes :  0.00  1994
 Reading time dependent input

  ** W13  readt **  Time of time dependent data does not fit time interval
                     Time was   :348.00  1971
                     It becomes :  0.00  1994
 Reading time dependent input

  ** W13  readt **  Time of time dependent data does not fit time interval
                     Time was   :349.00  1971
                     It becomes :  0.00  1994
 Reading time dependent input

  ** W13  readt **  Time of time dependent data does not fit time interval
                     Time was   :350.00  1971
                     It becomes :  0.00  1994
 Reading time dependent input

  ** W13  readt **  Time of time dependent data does not fit time interval
                     Time was   :351.00  1971
                     It becomes :  0.00  1994
 Reading time dependent input

  ** W13  readt **  Time of time dependent data does not fit time interval
                     Time was   :352.00  1971
                     It becomes :  0.00  1994
 Reading time dependent input

  ** W13  readt **  Time of time dependent data does not fit time interval
                     Time was   :353.00  1971
                     It becomes :  0.00  1994
 Reading time dependent input

  ** W13  readt **  Time of time dependent data does not fit time interval
                     Time was   :354.00  1971
                     It becomes :  0.00  1994
 Reading time dependent input

  ** W13  readt **  Time of time dependent data does not fit time interval
                     Time was   :355.00  1971
                     It becomes :  0.00  1994
 Reading time dependent input

  ** W13  readt **  Time of time dependent data does not fit time interval
                     Time was   :356.00  1971
                     It becomes :  0.00  1994
 Reading time dependent input

  ** W13  readt **  Time of time dependent data does not fit time interval
                     Time was   :357.00  1971
                     It becomes :  0.00  1994
 Reading time dependent input

  ** W13  readt **  Time of time dependent data does not fit time interval
                     Time was   :358.00  1971
                     It becomes :  0.00  1994
 Reading time dependent input

  ** W13  readt **  Time of time dependent data does not fit time interval
                     Time was   :359.00  1971
                     It becomes :  0.00  1994
 Reading time dependent input

  ** W13  readt **  Time of time dependent data does not fit time interval
                     Time was   :360.00  1971
                     It becomes :  0.00  1994
 Reading time dependent input

  ** W13  readt **  Time of time dependent data does not fit time interval
                     Time was   :361.00  1971
                     It becomes :  0.00  1994
 Reading time dependent input

  ** W13  readt **  Time of time dependent data does not fit time interval
                     Time was   :362.00  1971
                     It becomes :  0.00  1994
 Reading time dependent input

  ** W13  readt **  Time of time dependent data does not fit time interval
                     Time was   :363.00  1971
                     It becomes :  0.00  1994
 Reading time dependent input

  ** W13  readt **  Time of time dependent data does not fit time interval
                     Time was   :364.00  1971
                     It becomes :  0.00  1994
 Reading time dependent input

  ** W13  readt **  Time of time dependent data does not fit time interval
                     Time was   :365.00  1971
                     It becomes :  0.00  1994
 Reading time dependent input

  ** W13  readt **  Time of time dependent data does not fit time interval
                     Time was   :  1.00  1972
                     It becomes :  0.00  1994
 Reading time dependent input

  ** W13  readt **  Time of time dependent data does not fit time interval
                     Time was   :  2.00  1972
                     It becomes :  0.00  1994
 Reading time dependent input

  ** W13  readt **  Time of time dependent data does not fit time interval
                     Time was   :  3.00  1972
                     It becomes :  0.00  1994
 Reading time dependent input

  ** W13  readt **  Time of time dependent data does not fit time interval
                     Time was   :  4.00  1972
                     It becomes :  0.00  1994
 Reading time dependent input

  ** W13  readt **  Time of time dependent data does not fit time interval
                     Time was   :  5.00  1972
                     It becomes :  0.00  1994
 Reading time dependent input

  ** W13  readt **  Time of time dependent data does not fit time interval
                     Time was   :  6.00  1972
                     It becomes :  0.00  1994
 Reading time dependent input

  ** W13  readt **  Time of time dependent data does not fit time interval
                     Time was   :  7.00  1972
                     It becomes :  0.00  1994
 Reading time dependent input

  ** W13  readt **  Time of time dependent data does not fit time interval
                     Time was   :  8.00  1972
                     It becomes :  0.00  1994
 Reading time dependent input

  ** W13  readt **  Time of time dependent data does not fit time interval
                     Time was   :  9.00  1972
                     It becomes :  0.00  1994
 Reading time dependent input

  ** W13  readt **  Time of time dependent data does not fit time interval
                     Time was   : 10.00  1972
                     It becomes :  0.00  1994
 Reading time dependent input

  ** W13  readt **  Time of time dependent data does not fit time interval
                     Time was   : 11.00  1972
                     It becomes :  0.00  1994
 Reading time dependent input

  ** W13  readt **  Time of time dependent data does not fit time interval
                     Time was   : 12.00  1972
                     It becomes :  0.00  1994
 Reading time dependent input

  ** W13  readt **  Time of time dependent data does not fit time interval
                     Time was   : 13.00  1972
                     It becomes :  0.00  1994
 Reading time dependent input

  ** W13  readt **  Time of time dependent data does not fit time interval
                     Time was   : 14.00  1972
                     It becomes :  0.00  1994
 Reading time dependent input

  ** W13  readt **  Time of time dependent data does not fit time interval
                     Time was   : 15.00  1972
                     It becomes :  0.00  1994
 Reading time dependent input

  ** W13  readt **  Time of time dependent data does not fit time interval
                     Time was   : 16.00  1972
                     It becomes :  0.00  1994
 Reading time dependent input

  ** W13  readt **  Time of time dependent data does not fit time interval
                     Time was   : 17.00  1972
                     It becomes :  0.00  1994
 Reading time dependent input

  ** W13  readt **  Time of time dependent data does not fit time interval
                     Time was   : 18.00  1972
                     It becomes :  0.00  1994
 Reading time dependent input

  ** W13  readt **  Time of time dependent data does not fit time interval
                     Time was   : 19.00  1972
                     It becomes :  0.00  1994
 Reading time dependent input

  ** W13  readt **  Time of time dependent data does not fit time interval
                     Time was   : 20.00  1972
                     It becomes :  0.00  1994
 Reading time dependent input

  ** W13  readt **  Time of time dependent data does not fit time interval
                     Time was   : 21.00  1972
                     It becomes :  0.00  1994
 Reading time dependent input

  ** W13  readt **  Time of time dependent data does not fit time interval
                     Time was   : 22.00  1972
                     It becomes :  0.00  1994
 Reading time dependent input

  ** W13  readt **  Time of time dependent data does not fit time interval
                     Time was   : 23.00  1972
                     It becomes :  0.00  1994
 Reading time dependent input

  ** W13  readt **  Time of time dependent data does not fit time interval
                     Time was   : 24.00  1972
                     It becomes :  0.00  1994
 Reading time dependent input

  ** W13  readt **  Time of time dependent data does not fit time interval
                     Time was   : 25.00  1972
                     It becomes :  0.00  1994
 Reading time dependent input

  ** W13  readt **  Time of time dependent data does not fit time interval
                     Time was   : 26.00  1972
                     It becomes :  0.00  1994
 Reading time dependent input

  ** W13  readt **  Time of time dependent data does not fit time interval
                     Time was   : 27.00  1972
                     It becomes :  0.00  1994
 Reading time dependent input

[...]
                     It becomes :  0.00  1994
 Reading time dependent input

  ** W13  readt **  Time of time dependent data does not fit time interval
                     Time was   :265.00  1993
                     It becomes :  0.00  1994
 Reading time dependent input

  ** W13  readt **  Time of time dependent data does not fit time interval
                     Time was   :266.00  1993
                     It becomes :  0.00  1994
 Reading time dependent input

  ** W13  readt **  Time of time dependent data does not fit time interval
                     Time was   :267.00  1993
                     It becomes :  0.00  1994
 Reading time dependent input

  ** W13  readt **  Time of time dependent data does not fit time interval
                     Time was   :268.00  1993
                     It becomes :  0.00  1994
 Reading time dependent input

  ** W13  readt **  Time of time dependent data does not fit time interval
                     Time was   :269.00  1993
                     It becomes :  0.00  1994
 Reading time dependent input

  ** W13  readt **  Time of time dependent data does not fit time interval
                     Time was   :270.00  1993
                     It becomes :  0.00  1994
 Reading time dependent input

  ** W13  readt **  Time of time dependent data does not fit time interval
                     Time was   :271.00  1993
                     It becomes :  0.00  1994
 Reading time dependent input

  ** W13  readt **  Time of time dependent data does not fit time interval
                     Time was   :272.00  1993
                     It becomes :  0.00  1994
 Reading time dependent input

  ** W13  readt **  Time of time dependent data does not fit time interval
                     Time was   :273.00  1993
                     It becomes :  0.00  1994
 Reading time dependent input

  ** W13  readt **  Time of time dependent data does not fit time interval
                     Time was   :274.00  1993
                     It becomes :  0.00  1994
 Reading time dependent input

  ** W13  readt **  Time of time dependent data does not fit time interval
                     Time was   :275.00  1993
                     It becomes :  0.00  1994
 Reading time dependent input

  ** W13  readt **  Time of time dependent data does not fit time interval
                     Time was   :276.00  1993
                     It becomes :  0.00  1994
 Reading time dependent input

  ** W13  readt **  Time of time dependent data does not fit time interval
                     Time was   :277.00  1993
                     It becomes :  0.00  1994
 Reading time dependent input

  ** W13  readt **  Time of time dependent data does not fit time interval
                     Time was   :278.00  1993
                     It becomes :  0.00  1994
 Reading time dependent input

  ** W13  readt **  Time of time dependent data does not fit time interval
                     Time was   :279.00  1993
                     It becomes :  0.00  1994
 Reading time dependent input

  ** W13  readt **  Time of time dependent data does not fit time interval
                     Time was   :280.00  1993
                     It becomes :  0.00  1994
 Reading time dependent input

  ** W13  readt **  Time of time dependent data does not fit time interval
                     Time was   :281.00  1993
                     It becomes :  0.00  1994
 Reading time dependent input

  ** W13  readt **  Time of time dependent data does not fit time interval
                     Time was   :282.00  1993
                     It becomes :  0.00  1994
 Reading time dependent input

  ** W13  readt **  Time of time dependent data does not fit time interval
                     Time was   :283.00  1993
                     It becomes :  0.00  1994
 Reading time dependent input

  ** W13  readt **  Time of time dependent data does not fit time interval
                     Time was   :284.00  1993
                     It becomes :  0.00  1994
 Reading time dependent input

  ** W13  readt **  Time of time dependent data does not fit time interval
                     Time was   :285.00  1993
                     It becomes :  0.00  1994
 Reading time dependent input

  ** W13  readt **  Time of time dependent data does not fit time interval
                     Time was   :286.00  1993
                     It becomes :  0.00  1994
 Reading time dependent input

  ** W13  readt **  Time of time dependent data does not fit time interval
                     Time was   :287.00  1993
                     It becomes :  0.00  1994
 Reading time dependent input

  ** W13  readt **  Time of time dependent data does not fit time interval
                     Time was   :288.00  1993
                     It becomes :  0.00  1994
 Reading time dependent input

  ** W13  readt **  Time of time dependent data does not fit time interval
                     Time was   :289.00  1993
                     It becomes :  0.00  1994
 Reading time dependent input

  ** W13  readt **  Time of time dependent data does not fit time interval
                     Time was   :290.00  1993
                     It becomes :  0.00  1994
 Reading time dependent input

  ** W13  readt **  Time of time dependent data does not fit time interval
                     Time was   :291.00  1993
                     It becomes :  0.00  1994
 Reading time dependent input

  ** W13  readt **  Time of time dependent data does not fit time interval
                     Time was   :292.00  1993
                     It becomes :  0.00  1994
 Reading time dependent input

  ** W13  readt **  Time of time dependent data does not fit time interval
                     Time was   :293.00  1993
                     It becomes :  0.00  1994
 Reading time dependent input

  ** W13  readt **  Time of time dependent data does not fit time interval
                     Time was   :294.00  1993
                     It becomes :  0.00  1994
 Reading time dependent input

  ** W13  readt **  Time of time dependent data does not fit time interval
                     Time was   :295.00  1993
                     It becomes :  0.00  1994
 Reading time dependent input

  ** W13  readt **  Time of time dependent data does not fit time interval
                     Time was   :296.00  1993
                     It becomes :  0.00  1994
 Reading time dependent input

  ** W13  readt **  Time of time dependent data does not fit time interval
                     Time was   :297.00  1993
                     It becomes :  0.00  1994
 Reading time dependent input

  ** W13  readt **  Time of time dependent data does not fit time interval
                     Time was   :298.00  1993
                     It becomes :  0.00  1994
 Reading time dependent input

  ** W13  readt **  Time of time dependent data does not fit time interval
                     Time was   :299.00  1993
                     It becomes :  0.00  1994
 Reading time dependent input

  ** W13  readt **  Time of time dependent data does not fit time interval
                     Time was   :300.00  1993
                     It becomes :  0.00  1994
 Reading time dependent input

  ** W13  readt **  Time of time dependent data does not fit time interval
                     Time was   :301.00  1993
                     It becomes :  0.00  1994
 Reading time dependent input

  ** W13  readt **  Time of time dependent data does not fit time interval
                     Time was   :302.00  1993
                     It becomes :  0.00  1994
 Reading time dependent input

  ** W13  readt **  Time of time dependent data does not fit time interval
                     Time was   :303.00  1993
                     It becomes :  0.00  1994
 Reading time dependent input

  ** W13  readt **  Time of time dependent data does not fit time interval
                     Time was   :304.00  1993
                     It becomes :  0.00  1994
 Reading time dependent input

  ** W13  readt **  Time of time dependent data does not fit time interval
                     Time was   :305.00  1993
                     It becomes :  0.00  1994
 Reading time dependent input

  ** W13  readt **  Time of time dependent data does not fit time interval
                     Time was   :306.00  1993
                     It becomes :  0.00  1994
 Reading time dependent input

  ** W13  readt **  Time of time dependent data does not fit time interval
                     Time was   :307.00  1993
                     It becomes :  0.00  1994
 Reading time dependent input

  ** W13  readt **  Time of time dependent data does not fit time interval
                     Time was   :308.00  1993
                     It becomes :  0.00  1994
 Reading time dependent input

  ** W13  readt **  Time of time dependent data does not fit time interval
                     Time was   :309.00  1993
                     It becomes :  0.00  1994
 Reading time dependent input

  ** W13  readt **  Time of time dependent data does not fit time interval
                     Time was   :310.00  1993
                     It becomes :  0.00  1994
 Reading time dependent input

  ** W13  readt **  Time of time dependent data does not fit time interval
                     Time was   :311.00  1993
                     It becomes :  0.00  1994
 Reading time dependent input

  ** W13  readt **  Time of time dependent data does not fit time interval
                     Time was   :312.00  1993
                     It becomes :  0.00  1994
 Reading time dependent input

  ** W13  readt **  Time of time dependent data does not fit time interval
                     Time was   :313.00  1993
                     It becomes :  0.00  1994
 Reading time dependent input

  ** W13  readt **  Time of time dependent data does not fit time interval
                     Time was   :314.00  1993
                     It becomes :  0.00  1994
 Reading time dependent input

  ** W13  readt **  Time of time dependent data does not fit time interval
                     Time was   :315.00  1993
                     It becomes :  0.00  1994
 Reading time dependent input

  ** W13  readt **  Time of time dependent data does not fit time interval
                     Time was   :316.00  1993
                     It becomes :  0.00  1994
 Reading time dependent input

  ** W13  readt **  Time of time dependent data does not fit time interval
                     Time was   :317.00  1993
                     It becomes :  0.00  1994
 Reading time dependent input

  ** W13  readt **  Time of time dependent data does not fit time interval
                     Time was   :318.00  1993
                     It becomes :  0.00  1994
 Reading time dependent input

  ** W13  readt **  Time of time dependent data does not fit time interval
                     Time was   :319.00  1993
                     It becomes :  0.00  1994
 Reading time dependent input

  ** W13  readt **  Time of time dependent data does not fit time interval
                     Time was   :320.00  1993
                     It becomes :  0.00  1994
 Reading time dependent input

  ** W13  readt **  Time of time dependent data does not fit time interval
                     Time was   :321.00  1993
                     It becomes :  0.00  1994
 Reading time dependent input

  ** W13  readt **  Time of time dependent data does not fit time interval
                     Time was   :322.00  1993
                     It becomes :  0.00  1994
 Reading time dependent input

  ** W13  readt **  Time of time dependent data does not fit time interval
                     Time was   :323.00  1993
                     It becomes :  0.00  1994
 Reading time dependent input

  ** W13  readt **  Time of time dependent data does not fit time interval
                     Time was   :324.00  1993
                     It becomes :  0.00  1994
 Reading time dependent input

  ** W13  readt **  Time of time dependent data does not fit time interval
                     Time was   :325.00  1993
                     It becomes :  0.00  1994
 Reading time dependent input

  ** W13  readt **  Time of time dependent data does not fit time interval
                     Time was   :326.00  1993
                     It becomes :  0.00  1994
 Reading time dependent input

  ** W13  readt **  Time of time dependent data does not fit time interval
                     Time was   :327.00  1993
                     It becomes :  0.00  1994
 Reading time dependent input

  ** W13  readt **  Time of time dependent data does not fit time interval
                     Time was   :328.00  1993
                     It becomes :  0.00  1994
 Reading time dependent input

  ** W13  readt **  Time of time dependent data does not fit time interval
                     Time was   :329.00  1993
                     It becomes :  0.00  1994
 Reading time dependent input

  ** W13  readt **  Time of time dependent data does not fit time interval
                     Time was   :330.00  1993
                     It becomes :  0.00  1994
 Reading time dependent input

  ** W13  readt **  Time of time dependent data does not fit time interval
                     Time was   :331.00  1993
                     It becomes :  0.00  1994
 Reading time dependent input

  ** W13  readt **  Time of time dependent data does not fit time interval
                     Time was   :332.00  1993
                     It becomes :  0.00  1994
 Reading time dependent input

  ** W13  readt **  Time of time dependent data does not fit time interval
                     Time was   :333.00  1993
                     It becomes :  0.00  1994
 Reading time dependent input

  ** W13  readt **  Time of time dependent data does not fit time interval
                     Time was   :334.00  1993
                     It becomes :  0.00  1994
 Reading time dependent input

  ** W13  readt **  Time of time dependent data does not fit time interval
                     Time was   :335.00  1993
                     It becomes :  0.00  1994
 Reading time dependent input

  ** W13  readt **  Time of time dependent data does not fit time interval
                     Time was   :336.00  1993
                     It becomes :  0.00  1994
 Reading time dependent input

  ** W13  readt **  Time of time dependent data does not fit time interval
                     Time was   :337.00  1993
                     It becomes :  0.00  1994
 Reading time dependent input

  ** W13  readt **  Time of time dependent data does not fit time interval
                     Time was   :338.00  1993
                     It becomes :  0.00  1994
 Reading time dependent input

  ** W13  readt **  Time of time dependent data does not fit time interval
                     Time was   :339.00  1993
                     It becomes :  0.00  1994
 Reading time dependent input

  ** W13  readt **  Time of time dependent data does not fit time interval
                     Time was   :340.00  1993
                     It becomes :  0.00  1994
 Reading time dependent input

  ** W13  readt **  Time of time dependent data does not fit time interval
                     Time was   :341.00  1993
                     It becomes :  0.00  1994
 Reading time dependent input

  ** W13  readt **  Time of time dependent data does not fit time interval
                     Time was   :342.00  1993
                     It becomes :  0.00  1994
 Reading time dependent input

  ** W13  readt **  Time of time dependent data does not fit time interval
                     Time was   :343.00  1993
                     It becomes :  0.00  1994
 Reading time dependent input

  ** W13  readt **  Time of time dependent data does not fit time interval
                     Time was   :344.00  1993
                     It becomes :  0.00  1994
 Reading time dependent input

  ** W13  readt **  Time of time dependent data does not fit time interval
                     Time was   :345.00  1993
                     It becomes :  0.00  1994
 Reading time dependent input

  ** W13  readt **  Time of time dependent data does not fit time interval
                     Time was   :346.00  1993
                     It becomes :  0.00  1994
 Reading time dependent input

  ** W13  readt **  Time of time dependent data does not fit time interval
                     Time was   :347.00  1993
                     It becomes :  0.00  1994
 Reading time dependent input

  ** W13  readt **  Time of time dependent data does not fit time interval
                     Time was   :348.00  1993
                     It becomes :  0.00  1994
 Reading time dependent input

  ** W13  readt **  Time of time dependent data does not fit time interval
                     Time was   :349.00  1993
                     It becomes :  0.00  1994
 Reading time dependent input

  ** W13  readt **  Time of time dependent data does not fit time interval
                     Time was   :350.00  1993
                     It becomes :  0.00  1994
 Reading time dependent input

  ** W13  readt **  Time of time dependent data does not fit time interval
                     Time was   :351.00  1993
                     It becomes :  0.00  1994
 Reading time dependent input

  ** W13  readt **  Time of time dependent data does not fit time interval
                     Time was   :352.00  1993
                     It becomes :  0.00  1994
 Reading time dependent input

  ** W13  readt **  Time of time dependent data does not fit time interval
                     Time was   :353.00  1993
                     It becomes :  0.00  1994
 Reading time dependent input

  ** W13  readt **  Time of time dependent data does not fit time interval
                     Time was   :354.00  1993
                     It becomes :  0.00  1994
 Reading time dependent input

  ** W13  readt **  Time of time dependent data does not fit time interval
                     Time was   :355.00  1993
                     It becomes :  0.00  1994
 Reading time dependent input

  ** W13  readt **  Time of time dependent data does not fit time interval
                     Time was   :356.00  1993
                     It becomes :  0.00  1994
 Reading time dependent input

  ** W13  readt **  Time of time dependent data does not fit time interval
                     Time was   :357.00  1993
                     It becomes :  0.00  1994
 Reading time dependent input

  ** W13  readt **  Time of time dependent data does not fit time interval
                     Time was   :358.00  1993
                     It becomes :  0.00  1994
 Reading time dependent input

  ** W13  readt **  Time of time dependent data does not fit time interval
                     Time was   :359.00  1993
                     It becomes :  0.00  1994
 Reading time dependent input

  ** W13  readt **  Time of time dependent data does not fit time interval
                     Time was   :360.00  1993
                     It becomes :  0.00  1994
 Reading time dependent input

  ** W13  readt **  Time of time dependent data does not fit time interval
                     Time was   :361.00  1993
                     It becomes :  0.00  1994
 Reading time dependent input

  ** W13  readt **  Time of time dependent data does not fit time interval
                     Time was   :362.00  1993
                     It becomes :  0.00  1994
 Reading time dependent input

  ** W13  readt **  Time of time dependent data does not fit time interval
                     Time was   :363.00  1993
                     It becomes :  0.00  1994
 Reading time dependent input

  ** W13  readt **  Time of time dependent data does not fit time interval
                     Time was   :364.00  1993
                     It becomes :  0.00  1994
 Reading time dependent input
 Reading time dependent input
MetaSWAP_end, tiac =     0.00

RealTime:2023-03-21;20:28:31.197

MODFLOW_begin
