                                   MODFLOW 6
                U.S. GEOLOGICAL SURVEY MODULAR HYDROLOGIC MODEL
                          GROUNDWATER FLOW MODEL (GWF)
                   VERSION 6.4.0 release candidate 03/04/2022
                               ***DEVELOP MODE***

   MODFLOW 6 compiled Nov 01 2022 14:01:24 with Intel(R) Fortran Intel(R) 64
   Compiler Classic for applications running on Intel(R) 64, Version 2021.2.0
                             Build 20210228_000000

This software is preliminary or provisional and is subject to 
revision. It is being provided to meet the need for timely best 
science. The software has not received final approval by the U.S. 
Geological Survey (USGS). No warranty, expressed or implied, is made 
by the USGS or the U.S. Government as to the functionality of the 
software and related material nor shall the fact of release 
constitute any such warranty. The software is provided on the 
condition that neither the USGS nor the U.S. Government shall be held 
liable for any damages resulting from the authorized or unauthorized 
use of the software.


As a work of the United States Government, this USGS product is 
in the public domain within the United States. You can copy, 
modify, distribute, and perform the work, even for commercial 
purposes, all without asking permission. Additionally, USGS 
waives copyright and related rights in the work worldwide 
through CC0 1.0 Universal Public Domain Dedication 
(https://creativecommons.org/publicdomain/zero/1.0/).

The following GNU Lesser General Public License (LGPL) libraries
are used in this USGS product:

    SPARSKIT version 2.0
      ilut, luson, and qsplit 
      (https://www-users.cse.umn.edu/~saad/software/SPARSKIT/)

    RCM - Reverse Cuthill McKee Ordering
      (https://people.math.sc.edu/Burkardt/f_src/rcm/rcm.html)

    BLAS - Basic Linear Algebra Subprograms Level 1
      (https://people.math.sc.edu/Burkardt/f_src/blas1_d/blas1_d.html)

    SPARSEKIT - Sparse Matrix Utility Package
      amux, dperm, dvperm, rperm, and cperm
      (https://people.sc.fsu.edu/~jburkardt/f77_src/sparsekit/sparsekit.html)

The following BSD-3 License libraries are used in this USGS product:

    Modern Fortran DAG Library
      Copyright (c) 2018, Jacob Williams
      All rights reserved.
      (https://github.com/jacobwilliams/daglib)

MODFLOW 6 compiler options: /Isrc\libmf6core.a.p /Isrc /I..\src
/Isrc\libmf6_external.a.p /MTd /nologo /warn:general /warn:truncated_source
/stand:f08 /Zi /traceback /O2 /fpe:0 /heap-arrays:0 /traceback /fpp
/Qdiag-disable:7416 /Qdiag-disable:7025 /Qdiag-disable:5268
/Fdsrc\libmf6core.a.p\Utilities_compilerversion.F90.pdb
/module:src\libmf6core.a.p
/Fosrc/libmf6core.a.p/Utilities_compilerversion.F90.obj /c

System command used to initiate simulation:
C:\Users\slooten\.conda\envs\imod_coupler\python.exe c:\Users\slooten\.vscode\extensions\ms-python.python-2023.2.0\pythonFiles\lib\python\debugpy\launcher/../..\debugpy --connect 127.0.0.1:65436 --configure-qt none --adapter-access-token 4120899bfe78b69211c652066459b2d2c1b018cf6d8c4f07ee0bf493f3f5702b c:\Users\slooten\.vscode\extensions\ms-python.python-2023.2.0\pythonFiles\testlauncher.py d:\dev\imod_coupler pytest --rootdir d:\dev\imod_coupler --override-ini junit_family=xunit1 --junit-xml=C:\Users\slooten\AppData\Local\Temp\tmp-34820sPvGnZGmw3GS.xml --capture no ./tests/test_run_tmodel.py::test_run_tmodel

MODFLOW was compiled using uniform precision.

Real Variables
  KIND: 8
  TINY (smallest non-zero value):    2.225074-308
  HUGE (largest value):    1.797693+308
  PRECISION: 15
  BIT SIZE: 64

Integer Variables
  KIND: 4
  HUGE (largest value): 2147483647
  BIT SIZE: 32

Long Integer Variables
  KIND: 8
  HUGE (largest value): 9223372036854775807
  BIT SIZE: 64

Logical Variables
  KIND: 4
  BIT SIZE: 32
 

 OPENED .\GWF_1\MODELINPUT\T-MODEL-D.DIS6
 FILE TYPE:DIS6                   UNIT 1005   STATUS:OLD                 
 FORMAT:FORMATTED              ACCESS:SEQUENTIAL          
 ACTION:READ                


 OPENED .\GWF_1\MODELINPUT\T-MODEL-D.IC6
 FILE TYPE:IC6                    UNIT 1006   STATUS:OLD                 
 FORMAT:FORMATTED              ACCESS:SEQUENTIAL          
 ACTION:READ                


 OPENED .\GWF_1\MODELINPUT\T-MODEL-D.NPF6
 FILE TYPE:NPF6                   UNIT 1007   STATUS:OLD                 
 FORMAT:FORMATTED              ACCESS:SEQUENTIAL          
 ACTION:READ                


 OPENED .\GWF_1\MODELINPUT\T-MODEL-D.OC6
 FILE TYPE:OC6                    UNIT 1008   STATUS:OLD                 
 FORMAT:FORMATTED              ACCESS:SEQUENTIAL          
 ACTION:READ                


 OPENED .\GWF_1\MODELINPUT\T-MODEL-D.STO6
 FILE TYPE:STO6                   UNIT 1009   STATUS:OLD                 
 FORMAT:FORMATTED              ACCESS:SEQUENTIAL          
 ACTION:READ                


 OPENED .\GWF_1\MODELINPUT\T-MODEL-D_SYS1.DRN6
 FILE TYPE:DRN6                   UNIT 1010   STATUS:OLD                 
 FORMAT:FORMATTED              ACCESS:SEQUENTIAL          
 ACTION:READ                


 OPENED .\GWF_1\MODELINPUT\T-MODEL-D_SYS1.RIV6
 FILE TYPE:RIV6                   UNIT 1011   STATUS:OLD                 
 FORMAT:FORMATTED              ACCESS:SEQUENTIAL          
 ACTION:READ                


 OPENED .\GWF_1\MODELINPUT\T-MODEL-D_SYS2.RIV6
 FILE TYPE:RIV6                   UNIT 1012   STATUS:OLD                 
 FORMAT:FORMATTED              ACCESS:SEQUENTIAL          
 ACTION:READ                


 OPENED .\GWF_1\MODELINPUT\MSW.RCH6
 FILE TYPE:RCH6                   UNIT 1013   STATUS:OLD                 
 FORMAT:FORMATTED              ACCESS:SEQUENTIAL          
 ACTION:READ                


 OPENED .\GWF_1\MODELINPUT\RIV_CORRECTION.WEL6
 FILE TYPE:WEL6                   UNIT 1014   STATUS:OLD                 
 FORMAT:FORMATTED              ACCESS:SEQUENTIAL          
 ACTION:READ                


 DIS -- STRUCTURED GRID DISCRETIZATION PACKAGE, VERSION 2 : 3/27/2014 - INPUT READ FROM UNIT 1005

 Loading input for GWF_1/DIS
 # DIS6 File Generated by iMOD [V5_4 X64 Optimized]
   XORIGIN = .000000000000000
   YORIGIN = .000000000000000
   ANGROT = .000000000000000
 #Model Dimensions
   NLAY = 1
   NROW = 11
   NCOL = 10
 #Cell Sizes
   DELR = 100.0000000000000
   DELC = 100.0000000000000
 #Vertical Configuration
   TOP = .000000000000000
   BOTM = -10.00000000000000
 #Boundary Settings
   IDOMAIN = variable 3D integer array ranging from 1 to 2
 Loading input complete...


 NPF -- NODE PROPERTY FLOW PACKAGE, VERSION 1, 3/30/2015 INPUT READ FROM UNIT 1007

 Loading input for GWF_1/NPF
 # NPF6 File Generated by iMOD [V5_4 X64 Optimized]
 #General Options
 #Geology Options
   ICELLTYPE = 0
   K = 100.0000000000000
   K33 = 1.000000000000000
 Loading input complete...

 Setting Discretization Options
    MODEL LENGTH UNIT [0=UND, 1=FEET, 2=METERS, 3=CENTIMETERS] SET AS 2
    XORIGIN = .000000000000000
    YORIGIN = .000000000000000
    ANGROT = .000000000000000
 End Setting Discretization Options

 Setting Discretization Dimensions
    NLAY = 1
    NROW = 11
    NCOL = 10
 End Setting Discretization Dimensions

 Setting Discretization Griddata
    DELR set from input file
    DELC set from input file
    TOP set from input file
    BOTM set from input file
    IDOMAIN set from input file
 End Setting Discretization Griddata

 Setting NPF Options
    ALTERNATIVE CELL AVERAGING [1=LOGARITHMIC, 2=AMT-LMK, 3=AMT-HMK] SET TO: 3
 End Setting NPF Options

 THE FOLLOWING REWET SETTINGS WILL BE USED.
      WETFCT =     1.00000    
      IWETIT = 1
      IHDWET = 0
 K22 not provided.  Setting K22 = K.
 Setting NPF Griddata
    ICELLTYPE set from input file
    K set from input file
    K33 set from input file
 End Setting NPF Griddata


 WEL   -- WEL PACKAGE, VERSION 8, 2/22/2014 INPUT READ FROM UNIT 1014

 PROCESSING WEL OPTIONS
 END OF WEL OPTIONS

 PROCESSING WEL DIMENSIONS
    MAXBOUND =      55
 END OF WEL DIMENSIONS

 DRN   -- DRN PACKAGE, VERSION 8, 2/22/2014 INPUT READ FROM UNIT 1010
 # DRN6 File Generated by iMOD [V5_4 X64 Optimized]
 #General Options

 PROCESSING DRN OPTIONS
    FLOWS WILL BE SAVED TO BUDGET FILE SPECIFIED IN OUTPUT CONTROL
 END OF DRN OPTIONS
 #General Dimensions

 PROCESSING DRN DIMENSIONS
    MAXBOUND =       2
 END OF DRN DIMENSIONS

 RIV   -- RIV PACKAGE, VERSION 8, 2/22/2014 INPUT READ FROM UNIT 1011
 # RIV6 File Generated by iMOD [V5_4 X64 Optimized]
 #General Options

 PROCESSING RIV OPTIONS
    FLOWS WILL BE SAVED TO BUDGET FILE SPECIFIED IN OUTPUT CONTROL
 END OF RIV OPTIONS
 #General Dimensions

 PROCESSING RIV DIMENSIONS
    MAXBOUND =      55
 END OF RIV DIMENSIONS

 RIV   -- RIV PACKAGE, VERSION 8, 2/22/2014 INPUT READ FROM UNIT 1012
 # RIV6 File Generated by iMOD [V5_4 X64 Optimized]
 #General Options

 PROCESSING RIV OPTIONS
    FLOWS WILL BE SAVED TO BUDGET FILE SPECIFIED IN OUTPUT CONTROL
 END OF RIV OPTIONS
 #General Dimensions

 PROCESSING RIV DIMENSIONS
    MAXBOUND =       3
 END OF RIV DIMENSIONS

 RCH   -- RCH PACKAGE, VERSION 8, 2/22/2014 INPUT READ FROM UNIT 1013
 # RCH6 File Generated by iMOD [V5_4 X64 Optimized]
 #General Options

 PROCESSING RCH OPTIONS
 END OF RCH OPTIONS
 #General Dimensions

 PROCESSING RCH DIMENSIONS
    MAXBOUND =     110
 END OF RCH DIMENSIONS

 IC -- INITIAL CONDITIONS PACKAGE, VERSION 8, 3/28/2015 INPUT READ FROM UNIT 1006
 # IC6 File Generated by iMOD [V5_4 X64 Optimized]
 #General Options
 PROCESSING IC OPTIONS
 END OF IC OPTIONS
 #Initial Head Data
 PROCESSING GRIDDATA

     INITIAL HEAD =   10.00000     FOR LAYER 1
 END PROCESSING GRIDDATA

 STO -- STORAGE PACKAGE, VERSION 1, 5/19/2014 INPUT READ FROM UNIT 1009


 # STO6 File Generated by iMOD [V5_4 X64 Optimized]
 #General Options
 PROCESSING STORAGE OPTIONS
    STORAGECOEFFICIENT OPTION:
 Read storage coefficient rather than specific storage
 END OF STORAGE OPTIONS
 #Geology Options
 PROCESSING GRIDDATA

                 ICONVERT = 0 FOR LAYER 1

         SPECIFIC STORAGE =  0.1500000     FOR LAYER 1
 END PROCESSING GRIDDATA
    BINARY GRID INFORMATION WILL BE WRITTEN TO:
      UNIT NUMBER: 1017
      FILE NAME: C:\Users\slooten\AppData\Local\Temp\pytest-of-slooten\pytest-18\test_run_tmodel0\develop\Modflow6\GWF_1\MODELINPUT\T-MODEL-D.DIS6.grb

 OPENED C:\Users\slooten\AppData\Local\Temp\pytest-of-slooten\pytest-18\test_run_tmodel0\develop\Modflow6\GWF_1\MODELINPUT\T-MODEL-D.DIS6.grb
 FILE TYPE:DATA(BINARY)   UNIT 1017   STATUS:REPLACE             
 FORMAT:UNFORMATTED            ACCESS:STREAM              
 ACTION:READWRITE           

      THE LAST TIME STEP WILL BE PRINTED
      THE LAST TIME STEP WILL BE PRINTED
 # OC6 File Generated by iMOD [V5_4 X64 Optimized]
 #General Options

 PROCESSING OC OPTIONS

    HEAD INFORMATION WILL BE WRITTEN TO:
      UNIT NUMBER: 1018
      FILE NAME: .\GWF_1\MODELOUTPUT\HEAD\HEAD.HED

 OPENED .\GWF_1\MODELOUTPUT\HEAD\HEAD.HED
 FILE TYPE:DATA(BINARY)   UNIT 1018   STATUS:REPLACE             
 FORMAT:UNFORMATTED            ACCESS:STREAM              
 ACTION:READWRITE           

    BUDGET INFORMATION WILL BE WRITTEN TO:
      UNIT NUMBER: 1019
      FILE NAME: .\GWF_1\MODELOUTPUT\BUDGET\BUDGET.CBC

 OPENED .\GWF_1\MODELOUTPUT\BUDGET\BUDGET.CBC
 FILE TYPE:DATA(BINARY)   UNIT 1019   STATUS:REPLACE             
 FORMAT:UNFORMATTED            ACCESS:STREAM              
 ACTION:READWRITE           

 END OF OC OPTIONS

start timestep kper="1" kstp="1" mode="normal"

 #Stressperiod Save Options

 BEGIN READING OUTPUT CONTROL FOR STRESS PERIOD 1
      ALL TIME STEPS WILL BE SAVED
      ALL TIME STEPS WILL BE SAVED

 END READING OUTPUT CONTROL FOR STRESS PERIOD 1
 #Time Storage Options


 PROCESSING STORAGE PERIOD DATA
 END PROCESSING STORAGE PERIOD DATA


 STRESS PERIOD 1 IS TRANSIENT


 OPENED .\GWF_1\MODELINPUT\DRN6\SYS1\DRN_T1.ARR
 FILE TYPE:OPEN/CLOSE   UNIT 1022   STATUS:OLD                 
 FORMAT:FORMATTED              ACCESS:SEQUENTIAL          
 ACTION:READ                


 OPENED .\GWF_1\MODELINPUT\ISG6\SYS1\ISG_T1.ARR
 FILE TYPE:OPEN/CLOSE   UNIT 1023   STATUS:OLD                 
 FORMAT:FORMATTED              ACCESS:SEQUENTIAL          
 ACTION:READ                


 OPENED .\GWF_1\MODELINPUT\RIV6\SYS1\RIV_T1.ARR
 FILE TYPE:OPEN/CLOSE   UNIT 1024   STATUS:OLD                 
 FORMAT:FORMATTED              ACCESS:SEQUENTIAL          
 ACTION:READ                

 UBDSV06 SAVING              DRN IN MODEL GWF_1            PACKAGE GWF_1           CONNECTED TO MODEL GWF_1            PACKAGE DRN_SYS1         ON UNIT   1019 AT TIME STEP      1, STRESS PERIOD      1
 UBDSV06 SAVING              RIV IN MODEL GWF_1            PACKAGE GWF_1           CONNECTED TO MODEL GWF_1            PACKAGE RIV_SYS1         ON UNIT   1019 AT TIME STEP      1, STRESS PERIOD      1
 UBDSV06 SAVING              RIV IN MODEL GWF_1            PACKAGE GWF_1           CONNECTED TO MODEL GWF_1            PACKAGE RIV_SYS2         ON UNIT   1019 AT TIME STEP      1, STRESS PERIOD      1

 HEAD WILL BE SAVED ON UNIT 1018 AT END OF TIME STEP    1, STRESS PERIOD    1


  VOLUME BUDGET FOR ENTIRE MODEL AT END OF TIME STEP    1, STRESS PERIOD   1
  ---------------------------------------------------------------------------------------------------

     CUMULATIVE VOLUME      L**3       RATES FOR THIS TIME STEP      L**3/T          PACKAGE NAME    
     ------------------                 ------------------------                     ----------------

           IN:                                      IN:
           ---                                      ---
              STO-SS =        1257.8482                STO-SS =        1257.8482     STORAGE                          
                 WEL =       13282.1772                   WEL =       13282.1772     RIV_CORR                         
                 DRN =           0.0000                   DRN =           0.0000     DRN_SYS1                         
                 RIV =        5375.4175                   RIV =        5375.4175     RIV_SYS1                         
                 RIV =           0.0000                   RIV =           0.0000     RIV_SYS2                         
                 RCH =           0.0000                   RCH =           0.0000     RCH_MSW                          

            TOTAL IN =       19915.4429              TOTAL IN =       19915.4429

          OUT:                                     OUT:
          ----                                     ----
              STO-SS =       16805.0484                STO-SS =       16805.0484     STORAGE                          
                 WEL =           0.0000                   WEL =           0.0000     RIV_CORR                         
                 DRN =         291.2661                   DRN =         291.2661     DRN_SYS1                         
                 RIV =           0.0000                   RIV =           0.0000     RIV_SYS1                         
                 RIV =         848.6651                   RIV =         848.6651     RIV_SYS2                         
                 RCH =        1970.5257                   RCH =        1970.5257     RCH_MSW                          

           TOTAL OUT =       19915.5052             TOTAL OUT =       19915.5052

            IN - OUT =      -6.2290E-02              IN - OUT =      -6.2290E-02

 PERCENT DISCREPANCY =          -0.00     PERCENT DISCREPANCY =          -0.00




         TIME SUMMARY AT END OF TIME STEP    1 IN STRESS PERIOD    1
                    SECONDS     MINUTES      HOURS       DAYS        YEARS
                    -----------------------------------------------------------
   TIME STEP LENGTH  86400.      1440.0      24.000      1.0000     2.73785E-03
 STRESS PERIOD TIME  86400.      1440.0      24.000      1.0000     2.73785E-03
         TOTAL TIME  86400.      1440.0      24.000      1.0000     2.73785E-03


end timestep


start timestep kper="2" kstp="1" mode="normal"

 #Stressperiod Save Options

 BEGIN READING OUTPUT CONTROL FOR STRESS PERIOD 2
      ALL TIME STEPS WILL BE SAVED
      ALL TIME STEPS WILL BE SAVED

 END READING OUTPUT CONTROL FOR STRESS PERIOD 2


 PROCESSING STORAGE PERIOD DATA
 END PROCESSING STORAGE PERIOD DATA


 STRESS PERIOD 2 IS TRANSIENT


 REUSING WELS FROM LAST STRESS PERIOD

 REUSING DRNS FROM LAST STRESS PERIOD

 REUSING RIVS FROM LAST STRESS PERIOD

 REUSING RIVS FROM LAST STRESS PERIOD

 REUSING RCHS FROM LAST STRESS PERIOD
 UBDSV06 SAVING              DRN IN MODEL GWF_1            PACKAGE GWF_1           CONNECTED TO MODEL GWF_1            PACKAGE DRN_SYS1         ON UNIT   1019 AT TIME STEP      1, STRESS PERIOD      2
 UBDSV06 SAVING              RIV IN MODEL GWF_1            PACKAGE GWF_1           CONNECTED TO MODEL GWF_1            PACKAGE RIV_SYS1         ON UNIT   1019 AT TIME STEP      1, STRESS PERIOD      2
 UBDSV06 SAVING              RIV IN MODEL GWF_1            PACKAGE GWF_1           CONNECTED TO MODEL GWF_1            PACKAGE RIV_SYS2         ON UNIT   1019 AT TIME STEP      1, STRESS PERIOD      2

 HEAD WILL BE SAVED ON UNIT 1018 AT END OF TIME STEP    1, STRESS PERIOD    2


  VOLUME BUDGET FOR ENTIRE MODEL AT END OF TIME STEP    1, STRESS PERIOD   2
  ---------------------------------------------------------------------------------------------------

     CUMULATIVE VOLUME      L**3       RATES FOR THIS TIME STEP      L**3/T          PACKAGE NAME    
     ------------------                 ------------------------                     ----------------

           IN:                                      IN:
           ---                                      ---
              STO-SS =       20346.8268                STO-SS =       19088.9785     STORAGE                          
                 WEL =       13282.1772                   WEL =           0.0000     RIV_CORR                         
                 DRN =           0.0000                   DRN =           0.0000     DRN_SYS1                         
                 RIV =        7368.5106                   RIV =        1993.0931     RIV_SYS1                         
                 RIV =           0.0000                   RIV =           0.0000     RIV_SYS2                         
                 RCH =        1897.4900                   RCH =        1897.4900     RCH_MSW                          

            TOTAL IN =       42895.0045              TOTAL IN =       22979.5616

          OUT:                                     OUT:
          ----                                     ----
              STO-SS =       16911.4626                STO-SS =         106.4142     STORAGE                          
                 WEL =       10997.9519                   WEL =       10997.9519     RIV_CORR                         
                 DRN =         578.2974                   DRN =         287.0313     DRN_SYS1                         
                 RIV =        1174.4030                   RIV =        1174.4030     RIV_SYS1                         
                 RIV =        1671.6103                   RIV =         822.9452     RIV_SYS2                         
                 RCH =       11561.3370                   RCH =        9590.8113     RCH_MSW                          

           TOTAL OUT =       42895.0621             TOTAL OUT =       22979.5568

            IN - OUT =      -5.7533E-02              IN - OUT =       4.7573E-03

 PERCENT DISCREPANCY =          -0.00     PERCENT DISCREPANCY =           0.00




         TIME SUMMARY AT END OF TIME STEP    1 IN STRESS PERIOD    2
                    SECONDS     MINUTES      HOURS       DAYS        YEARS
                    -----------------------------------------------------------
   TIME STEP LENGTH  86400.      1440.0      24.000      1.0000     2.73785E-03
 STRESS PERIOD TIME  86400.      1440.0      24.000      1.0000     2.73785E-03
         TOTAL TIME 1.72800E+05  2880.0      48.000      2.0000     5.47570E-03


end timestep


start timestep kper="3" kstp="1" mode="normal"

 #Stressperiod Save Options

 BEGIN READING OUTPUT CONTROL FOR STRESS PERIOD 3
      ALL TIME STEPS WILL BE SAVED
      ALL TIME STEPS WILL BE SAVED

 END READING OUTPUT CONTROL FOR STRESS PERIOD 3


 PROCESSING STORAGE PERIOD DATA
 END PROCESSING STORAGE PERIOD DATA


 STRESS PERIOD 3 IS TRANSIENT


 REUSING WELS FROM LAST STRESS PERIOD

 REUSING DRNS FROM LAST STRESS PERIOD

 REUSING RIVS FROM LAST STRESS PERIOD

 REUSING RIVS FROM LAST STRESS PERIOD

 REUSING RCHS FROM LAST STRESS PERIOD
 UBDSV06 SAVING              DRN IN MODEL GWF_1            PACKAGE GWF_1           CONNECTED TO MODEL GWF_1            PACKAGE DRN_SYS1         ON UNIT   1019 AT TIME STEP      1, STRESS PERIOD      3
 UBDSV06 SAVING              RIV IN MODEL GWF_1            PACKAGE GWF_1           CONNECTED TO MODEL GWF_1            PACKAGE RIV_SYS1         ON UNIT   1019 AT TIME STEP      1, STRESS PERIOD      3
 UBDSV06 SAVING              RIV IN MODEL GWF_1            PACKAGE GWF_1           CONNECTED TO MODEL GWF_1            PACKAGE RIV_SYS2         ON UNIT   1019 AT TIME STEP      1, STRESS PERIOD      3

 HEAD WILL BE SAVED ON UNIT 1018 AT END OF TIME STEP    1, STRESS PERIOD    3


  VOLUME BUDGET FOR ENTIRE MODEL AT END OF TIME STEP    1, STRESS PERIOD   3
  ---------------------------------------------------------------------------------------------------

     CUMULATIVE VOLUME      L**3       RATES FOR THIS TIME STEP      L**3/T          PACKAGE NAME    
     ------------------                 ------------------------                     ----------------

           IN:                                      IN:
           ---                                      ---
              STO-SS =       21559.7119                STO-SS =        1212.8851     STORAGE                          
                 WEL =       15229.4537                   WEL =        1947.2765     RIV_CORR                         
                 DRN =           0.0000                   DRN =           0.0000     DRN_SYS1                         
                 RIV =        7543.3905                   RIV =         174.8799     RIV_SYS1                         
                 RIV =           0.0000                   RIV =           0.0000     RIV_SYS2                         
                 RCH =        5932.4326                   RCH =        4034.9426     RCH_MSW                          

            TOTAL IN =       50264.9886              TOTAL IN =        7369.9841

          OUT:                                     OUT:
          ----                                     ----
              STO-SS =       19377.5261                STO-SS =        2466.0635     STORAGE                          
                 WEL =       12181.9090                   WEL =        1183.9571     RIV_CORR                         
                 DRN =         866.3084                   DRN =         288.0110     DRN_SYS1                         
                 RIV =        3733.6122                   RIV =        2559.2092     RIV_SYS1                         
                 RIV =        2487.2867                   RIV =         815.6764     RIV_SYS2                         
                 RCH =       11618.4099                   RCH =          57.0729     RCH_MSW                          

           TOTAL OUT =       50265.0523             TOTAL OUT =        7369.9902

            IN - OUT =      -6.3632E-02              IN - OUT =      -6.0993E-03

 PERCENT DISCREPANCY =          -0.00     PERCENT DISCREPANCY =          -0.00




         TIME SUMMARY AT END OF TIME STEP    1 IN STRESS PERIOD    3
                    SECONDS     MINUTES      HOURS       DAYS        YEARS
                    -----------------------------------------------------------
   TIME STEP LENGTH  86400.      1440.0      24.000      1.0000     2.73785E-03
 STRESS PERIOD TIME  86400.      1440.0      24.000      1.0000     2.73785E-03
         TOTAL TIME 2.59200E+05  4320.0      72.000      3.0000     8.21355E-03


end timestep


start timestep kper="4" kstp="1" mode="normal"

 #Stressperiod Save Options

 BEGIN READING OUTPUT CONTROL FOR STRESS PERIOD 4
      ALL TIME STEPS WILL BE SAVED
      ALL TIME STEPS WILL BE SAVED

 END READING OUTPUT CONTROL FOR STRESS PERIOD 4


 PROCESSING STORAGE PERIOD DATA
 END PROCESSING STORAGE PERIOD DATA


 STRESS PERIOD 4 IS TRANSIENT


 REUSING WELS FROM LAST STRESS PERIOD

 REUSING DRNS FROM LAST STRESS PERIOD

 REUSING RIVS FROM LAST STRESS PERIOD

 REUSING RIVS FROM LAST STRESS PERIOD

 REUSING RCHS FROM LAST STRESS PERIOD
 UBDSV06 SAVING              DRN IN MODEL GWF_1            PACKAGE GWF_1           CONNECTED TO MODEL GWF_1            PACKAGE DRN_SYS1         ON UNIT   1019 AT TIME STEP      1, STRESS PERIOD      4
 UBDSV06 SAVING              RIV IN MODEL GWF_1            PACKAGE GWF_1           CONNECTED TO MODEL GWF_1            PACKAGE RIV_SYS1         ON UNIT   1019 AT TIME STEP      1, STRESS PERIOD      4
 UBDSV06 SAVING              RIV IN MODEL GWF_1            PACKAGE GWF_1           CONNECTED TO MODEL GWF_1            PACKAGE RIV_SYS2         ON UNIT   1019 AT TIME STEP      1, STRESS PERIOD      4

 HEAD WILL BE SAVED ON UNIT 1018 AT END OF TIME STEP    1, STRESS PERIOD    4


  VOLUME BUDGET FOR ENTIRE MODEL AT END OF TIME STEP    1, STRESS PERIOD   4
  ---------------------------------------------------------------------------------------------------

     CUMULATIVE VOLUME      L**3       RATES FOR THIS TIME STEP      L**3/T          PACKAGE NAME    
     ------------------                 ------------------------                     ----------------

           IN:                                      IN:
           ---                                      ---
              STO-SS =       24285.3126                STO-SS =        2725.6007     STORAGE                          
                 WEL =       15403.8845                   WEL =         174.4309     RIV_CORR                         
                 DRN =           0.0000                   DRN =           0.0000     DRN_SYS1                         
                 RIV =        8045.1489                   RIV =         501.7584     RIV_SYS1                         
                 RIV =           0.0000                   RIV =           0.0000     RIV_SYS2                         
                 RCH =        8372.5542                   RCH =        2440.1216     RCH_MSW                          

            TOTAL IN =       56106.9002              TOTAL IN =        5841.9116

          OUT:                                     OUT:
          ----                                     ----
              STO-SS =       19493.9618                STO-SS =         116.4356     STORAGE                          
                 WEL =       14746.7750                   WEL =        2564.8660     RIV_CORR                         
                 DRN =        1154.7248                   DRN =         288.4164     DRN_SYS1                         
                 RIV =        5073.4827                   RIV =        1339.8705     RIV_SYS1                         
                 RIV =        3297.2861                   RIV =         809.9994     RIV_SYS2                         
                 RCH =       12340.7276                   RCH =         722.3177     RCH_MSW                          

           TOTAL OUT =       56106.9580             TOTAL OUT =        5841.9057

            IN - OUT =      -5.7773E-02              IN - OUT =       5.8588E-03

 PERCENT DISCREPANCY =          -0.00     PERCENT DISCREPANCY =           0.00




         TIME SUMMARY AT END OF TIME STEP    1 IN STRESS PERIOD    4
                    SECONDS     MINUTES      HOURS       DAYS        YEARS
                    -----------------------------------------------------------
   TIME STEP LENGTH  86400.      1440.0      24.000      1.0000     2.73785E-03
 STRESS PERIOD TIME  86400.      1440.0      24.000      1.0000     2.73785E-03
         TOTAL TIME 3.45600E+05  5760.0      96.000      4.0000     1.09514E-02


end timestep


start timestep kper="5" kstp="1" mode="normal"

 #Stressperiod Save Options

 BEGIN READING OUTPUT CONTROL FOR STRESS PERIOD 5
      ALL TIME STEPS WILL BE SAVED
      ALL TIME STEPS WILL BE SAVED

 END READING OUTPUT CONTROL FOR STRESS PERIOD 5


 PROCESSING STORAGE PERIOD DATA
 END PROCESSING STORAGE PERIOD DATA


 STRESS PERIOD 5 IS TRANSIENT


 REUSING WELS FROM LAST STRESS PERIOD

 REUSING DRNS FROM LAST STRESS PERIOD

 REUSING RIVS FROM LAST STRESS PERIOD

 REUSING RIVS FROM LAST STRESS PERIOD

 REUSING RCHS FROM LAST STRESS PERIOD
 UBDSV06 SAVING              DRN IN MODEL GWF_1            PACKAGE GWF_1           CONNECTED TO MODEL GWF_1            PACKAGE DRN_SYS1         ON UNIT   1019 AT TIME STEP      1, STRESS PERIOD      5
 UBDSV06 SAVING              RIV IN MODEL GWF_1            PACKAGE GWF_1           CONNECTED TO MODEL GWF_1            PACKAGE RIV_SYS1         ON UNIT   1019 AT TIME STEP      1, STRESS PERIOD      5
 UBDSV06 SAVING              RIV IN MODEL GWF_1            PACKAGE GWF_1           CONNECTED TO MODEL GWF_1            PACKAGE RIV_SYS2         ON UNIT   1019 AT TIME STEP      1, STRESS PERIOD      5

 HEAD WILL BE SAVED ON UNIT 1018 AT END OF TIME STEP    1, STRESS PERIOD    5


  VOLUME BUDGET FOR ENTIRE MODEL AT END OF TIME STEP    1, STRESS PERIOD   5
  ---------------------------------------------------------------------------------------------------

     CUMULATIVE VOLUME      L**3       RATES FOR THIS TIME STEP      L**3/T          PACKAGE NAME    
     ------------------                 ------------------------                     ----------------

           IN:                                      IN:
           ---                                      ---
              STO-SS =       24452.2685                STO-SS =         166.9559     STORAGE                          
                 WEL =       15905.2915                   WEL =         501.4069     RIV_CORR                         
                 DRN =           0.0000                   DRN =           0.0000     DRN_SYS1                         
                 RIV =        8263.6708                   RIV =         218.5219     RIV_SYS1                         
                 RIV =           0.0000                   RIV =           0.0000     RIV_SYS2                         
                 RCH =       13915.9181                   RCH =        5543.3640     RCH_MSW                          

            TOTAL IN =       62537.1489              TOTAL IN =        6430.2487

          OUT:                                     OUT:
          ----                                     ----
              STO-SS =       21241.4439                STO-SS =        1747.4822     STORAGE                          
                 WEL =       16087.0331                   WEL =        1340.2580     RIV_CORR                         
                 DRN =        1446.9629                   DRN =         292.2381     DRN_SYS1                         
                 RIV =        7308.9642                   RIV =        2235.4815     RIV_SYS1                         
                 RIV =        4112.0817                   RIV =         814.7956     RIV_SYS2                         
                 RCH =       12340.7276                   RCH =           0.0000     RCH_MSW                          

           TOTAL OUT =       62537.2134             TOTAL OUT =        6430.2554

            IN - OUT =      -6.4500E-02              IN - OUT =      -6.7265E-03

 PERCENT DISCREPANCY =          -0.00     PERCENT DISCREPANCY =          -0.00




         TIME SUMMARY AT END OF TIME STEP    1 IN STRESS PERIOD    5
                    SECONDS     MINUTES      HOURS       DAYS        YEARS
                    -----------------------------------------------------------
   TIME STEP LENGTH  86400.      1440.0      24.000      1.0000     2.73785E-03
 STRESS PERIOD TIME  86400.      1440.0      24.000      1.0000     2.73785E-03
         TOTAL TIME 4.32000E+05  7200.0      120.00      5.0000     1.36893E-02


end timestep


start timestep kper="6" kstp="1" mode="normal"

 #Stressperiod Save Options

 BEGIN READING OUTPUT CONTROL FOR STRESS PERIOD 6
      ALL TIME STEPS WILL BE SAVED
      ALL TIME STEPS WILL BE SAVED

 END READING OUTPUT CONTROL FOR STRESS PERIOD 6


 PROCESSING STORAGE PERIOD DATA
 END PROCESSING STORAGE PERIOD DATA


 STRESS PERIOD 6 IS TRANSIENT


 REUSING WELS FROM LAST STRESS PERIOD

 REUSING DRNS FROM LAST STRESS PERIOD

 REUSING RIVS FROM LAST STRESS PERIOD

 REUSING RIVS FROM LAST STRESS PERIOD

 REUSING RCHS FROM LAST STRESS PERIOD
 UBDSV06 SAVING              DRN IN MODEL GWF_1            PACKAGE GWF_1           CONNECTED TO MODEL GWF_1            PACKAGE DRN_SYS1         ON UNIT   1019 AT TIME STEP      1, STRESS PERIOD      6
 UBDSV06 SAVING              RIV IN MODEL GWF_1            PACKAGE GWF_1           CONNECTED TO MODEL GWF_1            PACKAGE RIV_SYS1         ON UNIT   1019 AT TIME STEP      1, STRESS PERIOD      6
 UBDSV06 SAVING              RIV IN MODEL GWF_1            PACKAGE GWF_1           CONNECTED TO MODEL GWF_1            PACKAGE RIV_SYS2         ON UNIT   1019 AT TIME STEP      1, STRESS PERIOD      6

 HEAD WILL BE SAVED ON UNIT 1018 AT END OF TIME STEP    1, STRESS PERIOD    6


  VOLUME BUDGET FOR ENTIRE MODEL AT END OF TIME STEP    1, STRESS PERIOD   6
  ---------------------------------------------------------------------------------------------------

     CUMULATIVE VOLUME      L**3       RATES FOR THIS TIME STEP      L**3/T          PACKAGE NAME    
     ------------------                 ------------------------                     ----------------

           IN:                                      IN:
           ---                                      ---
              STO-SS =       25204.9917                STO-SS =         752.7232     STORAGE                          
                 WEL =       16123.8067                   WEL =         218.5152     RIV_CORR                         
                 DRN =           0.0000                   DRN =           0.0000     DRN_SYS1                         
                 RIV =        8582.9377                   RIV =         319.2669     RIV_SYS1                         
                 RIV =           0.0000                   RIV =           0.0000     RIV_SYS2                         
                 RCH =       18422.0782                   RCH =        4506.1601     RCH_MSW                          

            TOTAL IN =       68333.8143              TOTAL IN =        5796.6654

          OUT:                                     OUT:
          ----                                     ----
              STO-SS =       21917.8456                STO-SS =         676.4017     STORAGE                          
                 WEL =       18322.5981                   WEL =        2235.5651     RIV_CORR                         
                 DRN =        1741.7916                   DRN =         294.8287     DRN_SYS1                         
                 RIV =        8886.7857                   RIV =        1577.8215     RIV_SYS1                         
                 RIV =        4930.1564                   RIV =         818.0746     RIV_SYS2                         
                 RCH =       12534.6975                   RCH =         193.9699     RCH_MSW                          

           TOTAL OUT =       68333.8749             TOTAL OUT =        5796.6615

            IN - OUT =      -6.0643E-02              IN - OUT =       3.8566E-03

 PERCENT DISCREPANCY =          -0.00     PERCENT DISCREPANCY =           0.00




         TIME SUMMARY AT END OF TIME STEP    1 IN STRESS PERIOD    6
                    SECONDS     MINUTES      HOURS       DAYS        YEARS
                    -----------------------------------------------------------
   TIME STEP LENGTH  86400.      1440.0      24.000      1.0000     2.73785E-03
 STRESS PERIOD TIME  86400.      1440.0      24.000      1.0000     2.73785E-03
         TOTAL TIME 5.18400E+05  8640.0      144.00      6.0000     1.64271E-02


end timestep


start timestep kper="7" kstp="1" mode="normal"

 #Stressperiod Save Options

 BEGIN READING OUTPUT CONTROL FOR STRESS PERIOD 7
      ALL TIME STEPS WILL BE SAVED
      ALL TIME STEPS WILL BE SAVED

 END READING OUTPUT CONTROL FOR STRESS PERIOD 7


 PROCESSING STORAGE PERIOD DATA
 END PROCESSING STORAGE PERIOD DATA


 STRESS PERIOD 7 IS TRANSIENT


 REUSING WELS FROM LAST STRESS PERIOD

 REUSING DRNS FROM LAST STRESS PERIOD

 REUSING RIVS FROM LAST STRESS PERIOD

 REUSING RIVS FROM LAST STRESS PERIOD

 REUSING RCHS FROM LAST STRESS PERIOD
 UBDSV06 SAVING              DRN IN MODEL GWF_1            PACKAGE GWF_1           CONNECTED TO MODEL GWF_1            PACKAGE DRN_SYS1         ON UNIT   1019 AT TIME STEP      1, STRESS PERIOD      7
 UBDSV06 SAVING              RIV IN MODEL GWF_1            PACKAGE GWF_1           CONNECTED TO MODEL GWF_1            PACKAGE RIV_SYS1         ON UNIT   1019 AT TIME STEP      1, STRESS PERIOD      7
 UBDSV06 SAVING              RIV IN MODEL GWF_1            PACKAGE GWF_1           CONNECTED TO MODEL GWF_1            PACKAGE RIV_SYS2         ON UNIT   1019 AT TIME STEP      1, STRESS PERIOD      7

 HEAD WILL BE SAVED ON UNIT 1018 AT END OF TIME STEP    1, STRESS PERIOD    7


  VOLUME BUDGET FOR ENTIRE MODEL AT END OF TIME STEP    1, STRESS PERIOD   7
  ---------------------------------------------------------------------------------------------------

     CUMULATIVE VOLUME      L**3       RATES FOR THIS TIME STEP      L**3/T          PACKAGE NAME    
     ------------------                 ------------------------                     ----------------

           IN:                                      IN:
           ---                                      ---
              STO-SS =       26471.2663                STO-SS =        1266.2746     STORAGE                          
                 WEL =       16443.0711                   WEL =         319.2644     RIV_CORR                         
                 DRN =           0.0000                   DRN =           0.0000     DRN_SYS1                         
                 RIV =        8925.0586                   RIV =         342.1209     RIV_SYS1                         
                 RIV =           0.0000                   RIV =           0.0000     RIV_SYS2                         
                 RCH =       20871.8473                   RCH =        2449.7691     RCH_MSW                          

            TOTAL IN =       72711.2432              TOTAL IN =        4377.4289

          OUT:                                     OUT:
          ----                                     ----
              STO-SS =       22141.7126                STO-SS =         223.8670     STORAGE                          
                 WEL =       19900.4281                   WEL =        1577.8299     RIV_CORR                         
                 DRN =        2035.2674                   DRN =         293.4758     DRN_SYS1                         
                 RIV =       10354.9369                   RIV =        1468.1513     RIV_SYS1                         
                 RIV =        5742.1906                   RIV =         812.0342     RIV_SYS2                         
                 RCH =       12536.7831                   RCH =           2.0856     RCH_MSW                          

           TOTAL OUT =       72711.3186             TOTAL OUT =        4377.4437

            IN - OUT =      -7.5430E-02              IN - OUT =      -1.4786E-02

 PERCENT DISCREPANCY =          -0.00     PERCENT DISCREPANCY =          -0.00




         TIME SUMMARY AT END OF TIME STEP    1 IN STRESS PERIOD    7
                    SECONDS     MINUTES      HOURS       DAYS        YEARS
                    -----------------------------------------------------------
   TIME STEP LENGTH  86400.      1440.0      24.000      1.0000     2.73785E-03
 STRESS PERIOD TIME  86400.      1440.0      24.000      1.0000     2.73785E-03
         TOTAL TIME 6.04800E+05  10080.      168.00      7.0000     1.91650E-02


end timestep


start timestep kper="8" kstp="1" mode="normal"

 #Stressperiod Save Options

 BEGIN READING OUTPUT CONTROL FOR STRESS PERIOD 8
      ALL TIME STEPS WILL BE SAVED
      ALL TIME STEPS WILL BE SAVED

 END READING OUTPUT CONTROL FOR STRESS PERIOD 8


 PROCESSING STORAGE PERIOD DATA
 END PROCESSING STORAGE PERIOD DATA


 STRESS PERIOD 8 IS TRANSIENT


 REUSING WELS FROM LAST STRESS PERIOD

 REUSING DRNS FROM LAST STRESS PERIOD

 REUSING RIVS FROM LAST STRESS PERIOD

 REUSING RIVS FROM LAST STRESS PERIOD

 REUSING RCHS FROM LAST STRESS PERIOD
 UBDSV06 SAVING              DRN IN MODEL GWF_1            PACKAGE GWF_1           CONNECTED TO MODEL GWF_1            PACKAGE DRN_SYS1         ON UNIT   1019 AT TIME STEP      1, STRESS PERIOD      8
 UBDSV06 SAVING              RIV IN MODEL GWF_1            PACKAGE GWF_1           CONNECTED TO MODEL GWF_1            PACKAGE RIV_SYS1         ON UNIT   1019 AT TIME STEP      1, STRESS PERIOD      8
 UBDSV06 SAVING              RIV IN MODEL GWF_1            PACKAGE GWF_1           CONNECTED TO MODEL GWF_1            PACKAGE RIV_SYS2         ON UNIT   1019 AT TIME STEP      1, STRESS PERIOD      8

 HEAD WILL BE SAVED ON UNIT 1018 AT END OF TIME STEP    1, STRESS PERIOD    8


  VOLUME BUDGET FOR ENTIRE MODEL AT END OF TIME STEP    1, STRESS PERIOD   8
  ---------------------------------------------------------------------------------------------------

     CUMULATIVE VOLUME      L**3       RATES FOR THIS TIME STEP      L**3/T          PACKAGE NAME    
     ------------------                 ------------------------                     ----------------

           IN:                                      IN:
           ---                                      ---
              STO-SS =       27933.6404                STO-SS =        1462.3741     STORAGE                          
                 WEL =       16785.1917                   WEL =         342.1206     RIV_CORR                         
                 DRN =           0.0000                   DRN =           0.0000     DRN_SYS1                         
                 RIV =        9310.5973                   RIV =         385.5387     RIV_SYS1                         
                 RIV =           0.0000                   RIV =           0.0000     RIV_SYS2                         
                 RCH =       22566.9929                   RCH =        1695.1456     RCH_MSW                          

            TOTAL IN =       76596.4222              TOTAL IN =        3885.1790

          OUT:                                     OUT:
          ----                                     ----
              STO-SS =       22187.6415                STO-SS =          45.9289     STORAGE                          
                 WEL =       21368.5804                   WEL =        1468.1524     RIV_CORR                         
                 DRN =        2326.0311                   DRN =         290.7638     DRN_SYS1                         
                 RIV =       11625.3901                   RIV =        1270.4532     RIV_SYS1                         
                 RIV =        6544.6991                   RIV =         802.5085     RIV_SYS2                         
                 RCH =       12544.1643                   RCH =           7.3812     RCH_MSW                          

           TOTAL OUT =       76596.5066             TOTAL OUT =        3885.1879

            IN - OUT =      -8.4306E-02              IN - OUT =      -8.8759E-03

 PERCENT DISCREPANCY =          -0.00     PERCENT DISCREPANCY =          -0.00




         TIME SUMMARY AT END OF TIME STEP    1 IN STRESS PERIOD    8
                    SECONDS     MINUTES      HOURS       DAYS        YEARS
                    -----------------------------------------------------------
   TIME STEP LENGTH  86400.      1440.0      24.000      1.0000     2.73785E-03
 STRESS PERIOD TIME  86400.      1440.0      24.000      1.0000     2.73785E-03
         TOTAL TIME 6.91200E+05  11520.      192.00      8.0000     2.19028E-02


end timestep


start timestep kper="9" kstp="1" mode="normal"

 #Stressperiod Save Options

 BEGIN READING OUTPUT CONTROL FOR STRESS PERIOD 9
      ALL TIME STEPS WILL BE SAVED
      ALL TIME STEPS WILL BE SAVED

 END READING OUTPUT CONTROL FOR STRESS PERIOD 9


 PROCESSING STORAGE PERIOD DATA
 END PROCESSING STORAGE PERIOD DATA


 STRESS PERIOD 9 IS TRANSIENT


 REUSING WELS FROM LAST STRESS PERIOD

 REUSING DRNS FROM LAST STRESS PERIOD

 REUSING RIVS FROM LAST STRESS PERIOD

 REUSING RIVS FROM LAST STRESS PERIOD

 REUSING RCHS FROM LAST STRESS PERIOD
 UBDSV06 SAVING              DRN IN MODEL GWF_1            PACKAGE GWF_1           CONNECTED TO MODEL GWF_1            PACKAGE DRN_SYS1         ON UNIT   1019 AT TIME STEP      1, STRESS PERIOD      9
 UBDSV06 SAVING              RIV IN MODEL GWF_1            PACKAGE GWF_1           CONNECTED TO MODEL GWF_1            PACKAGE RIV_SYS1         ON UNIT   1019 AT TIME STEP      1, STRESS PERIOD      9
 UBDSV06 SAVING              RIV IN MODEL GWF_1            PACKAGE GWF_1           CONNECTED TO MODEL GWF_1            PACKAGE RIV_SYS2         ON UNIT   1019 AT TIME STEP      1, STRESS PERIOD      9

 HEAD WILL BE SAVED ON UNIT 1018 AT END OF TIME STEP    1, STRESS PERIOD    9


  VOLUME BUDGET FOR ENTIRE MODEL AT END OF TIME STEP    1, STRESS PERIOD   9
  ---------------------------------------------------------------------------------------------------

     CUMULATIVE VOLUME      L**3       RATES FOR THIS TIME STEP      L**3/T          PACKAGE NAME    
     ------------------                 ------------------------                     ----------------

           IN:                                      IN:
           ---                                      ---
              STO-SS =       29511.7574                STO-SS =        1578.1170     STORAGE                          
                 WEL =       17170.7303                   WEL =         385.5387     RIV_CORR                         
                 DRN =           0.0000                   DRN =           0.0000     DRN_SYS1                         
                 RIV =        9731.5298                   RIV =         420.9325     RIV_SYS1                         
                 RIV =           0.0000                   RIV =           0.0000     RIV_SYS2                         
                 RCH =       23774.2571                   RCH =        1207.2642     RCH_MSW                          

            TOTAL IN =       80188.2746              TOTAL IN =        3591.8524

          OUT:                                     OUT:
          ----                                     ----
              STO-SS =       22189.9304                STO-SS =           2.2889     STORAGE                          
                 WEL =       22639.0337                   WEL =        1270.4533     RIV_CORR                         
                 DRN =        2613.6520                   DRN =         287.6209     DRN_SYS1                         
                 RIV =       12821.9035                   RIV =        1196.5134     RIV_SYS1                         
                 RIV =        7336.6408                   RIV =         791.9417     RIV_SYS2                         
                 RCH =       12587.2617                   RCH =          43.0974     RCH_MSW                          

           TOTAL OUT =       80188.4221             TOTAL OUT =        3591.9155

            IN - OUT =          -0.1475              IN - OUT =      -6.3174E-02

 PERCENT DISCREPANCY =          -0.00     PERCENT DISCREPANCY =          -0.00




         TIME SUMMARY AT END OF TIME STEP    1 IN STRESS PERIOD    9
                    SECONDS     MINUTES      HOURS       DAYS        YEARS
                    -----------------------------------------------------------
   TIME STEP LENGTH  86400.      1440.0      24.000      1.0000     2.73785E-03
 STRESS PERIOD TIME  86400.      1440.0      24.000      1.0000     2.73785E-03
         TOTAL TIME 7.77600E+05  12960.      216.00      9.0000     2.46407E-02


end timestep


start timestep kper="10" kstp="1" mode="normal"

 #Stressperiod Save Options

 BEGIN READING OUTPUT CONTROL FOR STRESS PERIOD 10
      ALL TIME STEPS WILL BE SAVED
      ALL TIME STEPS WILL BE SAVED

 END READING OUTPUT CONTROL FOR STRESS PERIOD 10


 PROCESSING STORAGE PERIOD DATA
 END PROCESSING STORAGE PERIOD DATA


 STRESS PERIOD 10 IS TRANSIENT


 REUSING WELS FROM LAST STRESS PERIOD

 REUSING DRNS FROM LAST STRESS PERIOD

 REUSING RIVS FROM LAST STRESS PERIOD

 REUSING RIVS FROM LAST STRESS PERIOD

 REUSING RCHS FROM LAST STRESS PERIOD
 UBDSV06 SAVING              DRN IN MODEL GWF_1            PACKAGE GWF_1           CONNECTED TO MODEL GWF_1            PACKAGE DRN_SYS1         ON UNIT   1019 AT TIME STEP      1, STRESS PERIOD     10
 UBDSV06 SAVING              RIV IN MODEL GWF_1            PACKAGE GWF_1           CONNECTED TO MODEL GWF_1            PACKAGE RIV_SYS1         ON UNIT   1019 AT TIME STEP      1, STRESS PERIOD     10
 UBDSV06 SAVING              RIV IN MODEL GWF_1            PACKAGE GWF_1           CONNECTED TO MODEL GWF_1            PACKAGE RIV_SYS2         ON UNIT   1019 AT TIME STEP      1, STRESS PERIOD     10

 HEAD WILL BE SAVED ON UNIT 1018 AT END OF TIME STEP    1, STRESS PERIOD   10


  VOLUME BUDGET FOR ENTIRE MODEL AT END OF TIME STEP    1, STRESS PERIOD  10
  ---------------------------------------------------------------------------------------------------

     CUMULATIVE VOLUME      L**3       RATES FOR THIS TIME STEP      L**3/T          PACKAGE NAME    
     ------------------                 ------------------------                     ----------------

           IN:                                      IN:
           ---                                      ---
              STO-SS =       31114.2644                STO-SS =        1602.5071     STORAGE                          
                 WEL =       17591.6629                   WEL =         420.9325     RIV_CORR                         
                 DRN =           0.0000                   DRN =           0.0000     DRN_SYS1                         
                 RIV =       10180.7786                   RIV =         449.2488     RIV_SYS1                         
                 RIV =           0.0000                   RIV =           0.0000     RIV_SYS2                         
                 RCH =       24705.4166                   RCH =         931.1595     RCH_MSW                          

            TOTAL IN =       83592.1225              TOTAL IN =        3403.8479

          OUT:                                     OUT:
          ----                                     ----
              STO-SS =       22189.9304                STO-SS =           0.0000     STORAGE                          
                 WEL =       23835.5472                   WEL =        1196.5134     RIV_CORR                         
                 DRN =        2898.1414                   DRN =         284.4893     DRN_SYS1                         
                 RIV =       13937.5300                   RIV =        1115.6265     RIV_SYS1                         
                 RIV =        8118.2428                   RIV =         781.6020     RIV_SYS2                         
                 RCH =       12612.8835                   RCH =          25.6218     RCH_MSW                          

           TOTAL OUT =       83592.2752             TOTAL OUT =        3403.8531

            IN - OUT =          -0.1527              IN - OUT =      -5.2313E-03

 PERCENT DISCREPANCY =          -0.00     PERCENT DISCREPANCY =          -0.00




         TIME SUMMARY AT END OF TIME STEP    1 IN STRESS PERIOD   10
                    SECONDS     MINUTES      HOURS       DAYS        YEARS
                    -----------------------------------------------------------
   TIME STEP LENGTH  86400.      1440.0      24.000      1.0000     2.73785E-03
 STRESS PERIOD TIME  86400.      1440.0      24.000      1.0000     2.73785E-03
         TOTAL TIME 8.64000E+05  14400.      240.00      10.000     2.73785E-02


end timestep


start timestep kper="11" kstp="1" mode="normal"

 #Stressperiod Save Options

 BEGIN READING OUTPUT CONTROL FOR STRESS PERIOD 11
      ALL TIME STEPS WILL BE SAVED
      ALL TIME STEPS WILL BE SAVED

 END READING OUTPUT CONTROL FOR STRESS PERIOD 11


 PROCESSING STORAGE PERIOD DATA
 END PROCESSING STORAGE PERIOD DATA


 STRESS PERIOD 11 IS TRANSIENT


 REUSING WELS FROM LAST STRESS PERIOD

 REUSING DRNS FROM LAST STRESS PERIOD

 REUSING RIVS FROM LAST STRESS PERIOD

 REUSING RIVS FROM LAST STRESS PERIOD

 REUSING RCHS FROM LAST STRESS PERIOD
 UBDSV06 SAVING              DRN IN MODEL GWF_1            PACKAGE GWF_1           CONNECTED TO MODEL GWF_1            PACKAGE DRN_SYS1         ON UNIT   1019 AT TIME STEP      1, STRESS PERIOD     11
 UBDSV06 SAVING              RIV IN MODEL GWF_1            PACKAGE GWF_1           CONNECTED TO MODEL GWF_1            PACKAGE RIV_SYS1         ON UNIT   1019 AT TIME STEP      1, STRESS PERIOD     11
 UBDSV06 SAVING              RIV IN MODEL GWF_1            PACKAGE GWF_1           CONNECTED TO MODEL GWF_1            PACKAGE RIV_SYS2         ON UNIT   1019 AT TIME STEP      1, STRESS PERIOD     11

 HEAD WILL BE SAVED ON UNIT 1018 AT END OF TIME STEP    1, STRESS PERIOD   11


  VOLUME BUDGET FOR ENTIRE MODEL AT END OF TIME STEP    1, STRESS PERIOD  11
  ---------------------------------------------------------------------------------------------------

     CUMULATIVE VOLUME      L**3       RATES FOR THIS TIME STEP      L**3/T          PACKAGE NAME    
     ------------------                 ------------------------                     ----------------

           IN:                                      IN:
           ---                                      ---
              STO-SS =       32457.7914                STO-SS =        1343.5270     STORAGE                          
                 WEL =       18040.9117                   WEL =         449.2488     RIV_CORR                         
                 DRN =           0.0000                   DRN =           0.0000     DRN_SYS1                         
                 RIV =       10613.5986                   RIV =         432.8200     RIV_SYS1                         
                 RIV =           0.0000                   RIV =           0.0000     RIV_SYS2                         
                 RCH =       25809.4140                   RCH =        1103.9975     RCH_MSW                          

            TOTAL IN =       86921.7157              TOTAL IN =        3329.5932

          OUT:                                     OUT:
          ----                                     ----
              STO-SS =       22213.5706                STO-SS =          23.6402     STORAGE                          
                 WEL =       24951.1737                   WEL =        1115.6265     RIV_CORR                         
                 DRN =        3179.9623                   DRN =         281.8209     DRN_SYS1                         
                 RIV =       15073.5121                   RIV =        1135.9821     RIV_SYS1                         
                 RIV =        8890.8297                   RIV =         772.5869     RIV_SYS2                         
                 RCH =       12612.8835                   RCH =           0.0000     RCH_MSW                          

           TOTAL OUT =       86921.9318             TOTAL OUT =        3329.6566

            IN - OUT =          -0.2161              IN - OUT =      -6.3365E-02

 PERCENT DISCREPANCY =          -0.00     PERCENT DISCREPANCY =          -0.00




         TIME SUMMARY AT END OF TIME STEP    1 IN STRESS PERIOD   11
                    SECONDS     MINUTES      HOURS       DAYS        YEARS
                    -----------------------------------------------------------
   TIME STEP LENGTH  86400.      1440.0      24.000      1.0000     2.73785E-03
 STRESS PERIOD TIME  86400.      1440.0      24.000      1.0000     2.73785E-03
         TOTAL TIME 9.50400E+05  15840.      264.00      11.000     3.01164E-02


end timestep


start timestep kper="12" kstp="1" mode="normal"

 #Stressperiod Save Options

 BEGIN READING OUTPUT CONTROL FOR STRESS PERIOD 12
      ALL TIME STEPS WILL BE SAVED
      ALL TIME STEPS WILL BE SAVED

 END READING OUTPUT CONTROL FOR STRESS PERIOD 12


 PROCESSING STORAGE PERIOD DATA
 END PROCESSING STORAGE PERIOD DATA


 STRESS PERIOD 12 IS TRANSIENT


 REUSING WELS FROM LAST STRESS PERIOD

 REUSING DRNS FROM LAST STRESS PERIOD

 REUSING RIVS FROM LAST STRESS PERIOD

 REUSING RIVS FROM LAST STRESS PERIOD

 REUSING RCHS FROM LAST STRESS PERIOD
 UBDSV06 SAVING              DRN IN MODEL GWF_1            PACKAGE GWF_1           CONNECTED TO MODEL GWF_1            PACKAGE DRN_SYS1         ON UNIT   1019 AT TIME STEP      1, STRESS PERIOD     12
 UBDSV06 SAVING              RIV IN MODEL GWF_1            PACKAGE GWF_1           CONNECTED TO MODEL GWF_1            PACKAGE RIV_SYS1         ON UNIT   1019 AT TIME STEP      1, STRESS PERIOD     12
 UBDSV06 SAVING              RIV IN MODEL GWF_1            PACKAGE GWF_1           CONNECTED TO MODEL GWF_1            PACKAGE RIV_SYS2         ON UNIT   1019 AT TIME STEP      1, STRESS PERIOD     12

 HEAD WILL BE SAVED ON UNIT 1018 AT END OF TIME STEP    1, STRESS PERIOD   12


  VOLUME BUDGET FOR ENTIRE MODEL AT END OF TIME STEP    1, STRESS PERIOD  12
  ---------------------------------------------------------------------------------------------------

     CUMULATIVE VOLUME      L**3       RATES FOR THIS TIME STEP      L**3/T          PACKAGE NAME    
     ------------------                 ------------------------                     ----------------

           IN:                                      IN:
           ---                                      ---
              STO-SS =       32875.8402                STO-SS =         418.0488     STORAGE                          
                 WEL =       18473.7316                   WEL =         432.8200     RIV_CORR                         
                 DRN =           0.0000                   DRN =           0.0000     DRN_SYS1                         
                 RIV =       10916.2306                   RIV =         302.6320     RIV_SYS1                         
                 RIV =           0.0000                   RIV =           0.0000     RIV_SYS2                         
                 RCH =       29433.4072                   RCH =        3623.9932     RCH_MSW                          

            TOTAL IN =       91699.2097              TOTAL IN =        4777.4940

          OUT:                                     OUT:
          ----                                     ----
              STO-SS =       23140.9741                STO-SS =         927.4035     STORAGE                          
                 WEL =       26087.1557                   WEL =        1135.9821     RIV_CORR                         
                 DRN =        3462.1119                   DRN =         282.1496     DRN_SYS1                         
                 RIV =       16734.7543                   RIV =        1661.2422     RIV_SYS1                         
                 RIV =        9661.5291                   RIV =         770.6994     RIV_SYS2                         
                 RCH =       12612.8835                   RCH =           0.0000     RCH_MSW                          

           TOTAL OUT =       91699.4085             TOTAL OUT =        4777.4767

            IN - OUT =          -0.1987              IN - OUT =       1.7345E-02

 PERCENT DISCREPANCY =          -0.00     PERCENT DISCREPANCY =           0.00




         TIME SUMMARY AT END OF TIME STEP    1 IN STRESS PERIOD   12
                    SECONDS     MINUTES      HOURS       DAYS        YEARS
                    -----------------------------------------------------------
   TIME STEP LENGTH  86400.      1440.0      24.000      1.0000     2.73785E-03
 STRESS PERIOD TIME  86400.      1440.0      24.000      1.0000     2.73785E-03
         TOTAL TIME 1.03680E+06  17280.      288.00      12.000     3.28542E-02


end timestep


start timestep kper="13" kstp="1" mode="normal"

 #Stressperiod Save Options

 BEGIN READING OUTPUT CONTROL FOR STRESS PERIOD 13
      ALL TIME STEPS WILL BE SAVED
      ALL TIME STEPS WILL BE SAVED

 END READING OUTPUT CONTROL FOR STRESS PERIOD 13


 PROCESSING STORAGE PERIOD DATA
 END PROCESSING STORAGE PERIOD DATA


 STRESS PERIOD 13 IS TRANSIENT


 REUSING WELS FROM LAST STRESS PERIOD

 REUSING DRNS FROM LAST STRESS PERIOD

 REUSING RIVS FROM LAST STRESS PERIOD

 REUSING RIVS FROM LAST STRESS PERIOD

 REUSING RCHS FROM LAST STRESS PERIOD
 UBDSV06 SAVING              DRN IN MODEL GWF_1            PACKAGE GWF_1           CONNECTED TO MODEL GWF_1            PACKAGE DRN_SYS1         ON UNIT   1019 AT TIME STEP      1, STRESS PERIOD     13
 UBDSV06 SAVING              RIV IN MODEL GWF_1            PACKAGE GWF_1           CONNECTED TO MODEL GWF_1            PACKAGE RIV_SYS1         ON UNIT   1019 AT TIME STEP      1, STRESS PERIOD     13
 UBDSV06 SAVING              RIV IN MODEL GWF_1            PACKAGE GWF_1           CONNECTED TO MODEL GWF_1            PACKAGE RIV_SYS2         ON UNIT   1019 AT TIME STEP      1, STRESS PERIOD     13

 HEAD WILL BE SAVED ON UNIT 1018 AT END OF TIME STEP    1, STRESS PERIOD   13


  VOLUME BUDGET FOR ENTIRE MODEL AT END OF TIME STEP    1, STRESS PERIOD  13
  ---------------------------------------------------------------------------------------------------

     CUMULATIVE VOLUME      L**3       RATES FOR THIS TIME STEP      L**3/T          PACKAGE NAME    
     ------------------                 ------------------------                     ----------------

           IN:                                      IN:
           ---                                      ---
              STO-SS =       33420.1741                STO-SS =         544.3339     STORAGE                          
                 WEL =       18776.3636                   WEL =         302.6320     RIV_CORR                         
                 DRN =           0.0000                   DRN =           0.0000     DRN_SYS1                         
                 RIV =       11364.8875                   RIV =         448.6569     RIV_SYS1                         
                 RIV =           0.0000                   RIV =           0.0000     RIV_SYS2                         
                 RCH =       32106.1257                   RCH =        2672.7184     RCH_MSW                          

            TOTAL IN =       95667.5509              TOTAL IN =        3968.3412

          OUT:                                     OUT:
          ----                                     ----
              STO-SS =       23224.5952                STO-SS =          83.6211     STORAGE                          
                 WEL =       27748.3979                   WEL =        1661.2422     RIV_CORR                         
                 DRN =        3744.7010                   DRN =         282.5891     DRN_SYS1                         
                 RIV =       17905.9866                   RIV =        1171.2323     RIV_SYS1                         
                 RIV =       10431.1829                   RIV =         769.6539     RIV_SYS2                         
                 RCH =       12612.8835                   RCH =           0.0000     RCH_MSW                          

           TOTAL OUT =       95667.7471             TOTAL OUT =        3968.3387

            IN - OUT =          -0.1962              IN - OUT =       2.5459E-03

 PERCENT DISCREPANCY =          -0.00     PERCENT DISCREPANCY =           0.00




         TIME SUMMARY AT END OF TIME STEP    1 IN STRESS PERIOD   13
                    SECONDS     MINUTES      HOURS       DAYS        YEARS
                    -----------------------------------------------------------
   TIME STEP LENGTH  86400.      1440.0      24.000      1.0000     2.73785E-03
 STRESS PERIOD TIME  86400.      1440.0      24.000      1.0000     2.73785E-03
         TOTAL TIME 1.12320E+06  18720.      312.00      13.000     3.55921E-02


end timestep


start timestep kper="14" kstp="1" mode="normal"

 #Stressperiod Save Options

 BEGIN READING OUTPUT CONTROL FOR STRESS PERIOD 14
      ALL TIME STEPS WILL BE SAVED
      ALL TIME STEPS WILL BE SAVED

 END READING OUTPUT CONTROL FOR STRESS PERIOD 14


 PROCESSING STORAGE PERIOD DATA
 END PROCESSING STORAGE PERIOD DATA


 STRESS PERIOD 14 IS TRANSIENT


 REUSING WELS FROM LAST STRESS PERIOD

 REUSING DRNS FROM LAST STRESS PERIOD

 REUSING RIVS FROM LAST STRESS PERIOD

 REUSING RIVS FROM LAST STRESS PERIOD

 REUSING RCHS FROM LAST STRESS PERIOD
 UBDSV06 SAVING              DRN IN MODEL GWF_1            PACKAGE GWF_1           CONNECTED TO MODEL GWF_1            PACKAGE DRN_SYS1         ON UNIT   1019 AT TIME STEP      1, STRESS PERIOD     14
 UBDSV06 SAVING              RIV IN MODEL GWF_1            PACKAGE GWF_1           CONNECTED TO MODEL GWF_1            PACKAGE RIV_SYS1         ON UNIT   1019 AT TIME STEP      1, STRESS PERIOD     14
 UBDSV06 SAVING              RIV IN MODEL GWF_1            PACKAGE GWF_1           CONNECTED TO MODEL GWF_1            PACKAGE RIV_SYS2         ON UNIT   1019 AT TIME STEP      1, STRESS PERIOD     14

 HEAD WILL BE SAVED ON UNIT 1018 AT END OF TIME STEP    1, STRESS PERIOD   14


  VOLUME BUDGET FOR ENTIRE MODEL AT END OF TIME STEP    1, STRESS PERIOD  14
  ---------------------------------------------------------------------------------------------------

     CUMULATIVE VOLUME      L**3       RATES FOR THIS TIME STEP      L**3/T          PACKAGE NAME    
     ------------------                 ------------------------                     ----------------

           IN:                                      IN:
           ---                                      ---
              STO-SS =       33509.9689                STO-SS =          89.7948     STORAGE                          
                 WEL =       19225.0205                   WEL =         448.6569     RIV_CORR                         
                 DRN =           0.0000                   DRN =           0.0000     DRN_SYS1                         
                 RIV =       11709.3231                   RIV =         344.4356     RIV_SYS1                         
                 RIV =           0.0000                   RIV =           0.0000     RIV_SYS2                         
                 RCH =       35416.2068                   RCH =        3310.0812     RCH_MSW                          

            TOTAL IN =       99860.5194              TOTAL IN =        4192.9684

          OUT:                                     OUT:
          ----                                     ----
              STO-SS =       23690.3765                STO-SS =         465.7813     STORAGE                          
                 WEL =       28919.6302                   WEL =        1171.2323     RIV_CORR                         
                 DRN =        4028.2267                   DRN =         283.5257     DRN_SYS1                         
                 RIV =       19408.0633                   RIV =        1502.0768     RIV_SYS1                         
                 RIV =       11201.5357                   RIV =         770.3528     RIV_SYS2                         
                 RCH =       12612.8835                   RCH =           0.0000     RCH_MSW                          

           TOTAL OUT =       99860.7160             TOTAL OUT =        4192.9689

            IN - OUT =          -0.1966              IN - OUT =      -4.5010E-04

 PERCENT DISCREPANCY =          -0.00     PERCENT DISCREPANCY =          -0.00




         TIME SUMMARY AT END OF TIME STEP    1 IN STRESS PERIOD   14
                    SECONDS     MINUTES      HOURS       DAYS        YEARS
                    -----------------------------------------------------------
   TIME STEP LENGTH  86400.      1440.0      24.000      1.0000     2.73785E-03
 STRESS PERIOD TIME  86400.      1440.0      24.000      1.0000     2.73785E-03
         TOTAL TIME 1.20960E+06  20160.      336.00      14.000     3.83299E-02


end timestep


start timestep kper="15" kstp="1" mode="normal"

 #Stressperiod Save Options

 BEGIN READING OUTPUT CONTROL FOR STRESS PERIOD 15
      ALL TIME STEPS WILL BE SAVED
      ALL TIME STEPS WILL BE SAVED

 END READING OUTPUT CONTROL FOR STRESS PERIOD 15


 PROCESSING STORAGE PERIOD DATA
 END PROCESSING STORAGE PERIOD DATA


 STRESS PERIOD 15 IS TRANSIENT


 REUSING WELS FROM LAST STRESS PERIOD

 REUSING DRNS FROM LAST STRESS PERIOD

 REUSING RIVS FROM LAST STRESS PERIOD

 REUSING RIVS FROM LAST STRESS PERIOD

 REUSING RCHS FROM LAST STRESS PERIOD
 UBDSV06 SAVING              DRN IN MODEL GWF_1            PACKAGE GWF_1           CONNECTED TO MODEL GWF_1            PACKAGE DRN_SYS1         ON UNIT   1019 AT TIME STEP      1, STRESS PERIOD     15
 UBDSV06 SAVING              RIV IN MODEL GWF_1            PACKAGE GWF_1           CONNECTED TO MODEL GWF_1            PACKAGE RIV_SYS1         ON UNIT   1019 AT TIME STEP      1, STRESS PERIOD     15
 UBDSV06 SAVING              RIV IN MODEL GWF_1            PACKAGE GWF_1           CONNECTED TO MODEL GWF_1            PACKAGE RIV_SYS2         ON UNIT   1019 AT TIME STEP      1, STRESS PERIOD     15

 HEAD WILL BE SAVED ON UNIT 1018 AT END OF TIME STEP    1, STRESS PERIOD   15


  VOLUME BUDGET FOR ENTIRE MODEL AT END OF TIME STEP    1, STRESS PERIOD  15
  ---------------------------------------------------------------------------------------------------

     CUMULATIVE VOLUME      L**3       RATES FOR THIS TIME STEP      L**3/T          PACKAGE NAME    
     ------------------                 ------------------------                     ----------------

           IN:                                      IN:
           ---                                      ---
              STO-SS =       34327.7322                STO-SS =         817.7633     STORAGE                          
                 WEL =       19569.4561                   WEL =         344.4356     RIV_CORR                         
                 DRN =           0.0000                   DRN =           0.0000     DRN_SYS1                         
                 RIV =       12235.1655                   RIV =         525.8424     RIV_SYS1                         
                 RIV =           0.0000                   RIV =           0.0000     RIV_SYS2                         
                 RCH =       37421.9826                   RCH =        2005.7758     RCH_MSW                          

            TOTAL IN =      103554.3364              TOTAL IN =        3693.8170

          OUT:                                     OUT:
          ----                                     ----
              STO-SS =       23703.7055                STO-SS =          13.3290     STORAGE                          
                 WEL =       30421.7070                   WEL =        1502.0768     RIV_CORR                         
                 DRN =        4311.0812                   DRN =         282.8545     DRN_SYS1                         
                 RIV =       20533.7854                   RIV =        1125.7220     RIV_SYS1                         
                 RIV =       11969.1611                   RIV =         767.6254     RIV_SYS2                         
                 RCH =       12615.1125                   RCH =           2.2290     RCH_MSW                          

           TOTAL OUT =      103554.5526             TOTAL OUT =        3693.8366

            IN - OUT =          -0.2163              IN - OUT =      -1.9637E-02

 PERCENT DISCREPANCY =          -0.00     PERCENT DISCREPANCY =          -0.00




         TIME SUMMARY AT END OF TIME STEP    1 IN STRESS PERIOD   15
                    SECONDS     MINUTES      HOURS       DAYS        YEARS
                    -----------------------------------------------------------
   TIME STEP LENGTH  86400.      1440.0      24.000      1.0000     2.73785E-03
 STRESS PERIOD TIME  86400.      1440.0      24.000      1.0000     2.73785E-03
         TOTAL TIME 1.29600E+06  21600.      360.00      15.000     4.10678E-02


end timestep


start timestep kper="16" kstp="1" mode="normal"

 #Stressperiod Save Options

 BEGIN READING OUTPUT CONTROL FOR STRESS PERIOD 16
      ALL TIME STEPS WILL BE SAVED
      ALL TIME STEPS WILL BE SAVED

 END READING OUTPUT CONTROL FOR STRESS PERIOD 16


 PROCESSING STORAGE PERIOD DATA
 END PROCESSING STORAGE PERIOD DATA


 STRESS PERIOD 16 IS TRANSIENT


 REUSING WELS FROM LAST STRESS PERIOD

 REUSING DRNS FROM LAST STRESS PERIOD

 REUSING RIVS FROM LAST STRESS PERIOD

 REUSING RIVS FROM LAST STRESS PERIOD

 REUSING RCHS FROM LAST STRESS PERIOD
 UBDSV06 SAVING              DRN IN MODEL GWF_1            PACKAGE GWF_1           CONNECTED TO MODEL GWF_1            PACKAGE DRN_SYS1         ON UNIT   1019 AT TIME STEP      1, STRESS PERIOD     16
 UBDSV06 SAVING              RIV IN MODEL GWF_1            PACKAGE GWF_1           CONNECTED TO MODEL GWF_1            PACKAGE RIV_SYS1         ON UNIT   1019 AT TIME STEP      1, STRESS PERIOD     16
 UBDSV06 SAVING              RIV IN MODEL GWF_1            PACKAGE GWF_1           CONNECTED TO MODEL GWF_1            PACKAGE RIV_SYS2         ON UNIT   1019 AT TIME STEP      1, STRESS PERIOD     16

 HEAD WILL BE SAVED ON UNIT 1018 AT END OF TIME STEP    1, STRESS PERIOD   16


  VOLUME BUDGET FOR ENTIRE MODEL AT END OF TIME STEP    1, STRESS PERIOD  16
  ---------------------------------------------------------------------------------------------------

     CUMULATIVE VOLUME      L**3       RATES FOR THIS TIME STEP      L**3/T          PACKAGE NAME    
     ------------------                 ------------------------                     ----------------

           IN:                                      IN:
           ---                                      ---
              STO-SS =       35194.1331                STO-SS =         866.4009     STORAGE                          
                 WEL =       20095.2985                   WEL =         525.8424     RIV_CORR                         
                 DRN =           0.0000                   DRN =           0.0000     DRN_SYS1                         
                 RIV =       12688.4656                   RIV =         453.3001     RIV_SYS1                         
                 RIV =           0.0000                   RIV =           0.0000     RIV_SYS2                         
                 RCH =       38929.8092                   RCH =        1507.8266     RCH_MSW                          

            TOTAL IN =      106907.7064              TOTAL IN =        3353.3700

          OUT:                                     OUT:
          ----                                     ----
              STO-SS =       23728.6002                STO-SS =          24.8947     STORAGE                          
                 WEL =       31547.4290                   WEL =        1125.7220     RIV_CORR                         
                 DRN =        4592.2667                   DRN =         281.1855     DRN_SYS1                         
                 RIV =       21674.1030                   RIV =        1140.3177     RIV_SYS1                         
                 RIV =       12731.7231                   RIV =         762.5620     RIV_SYS2                         
                 RCH =       12633.8149                   RCH =          18.7024     RCH_MSW                          

           TOTAL OUT =      106907.9370             TOTAL OUT =        3353.3844

            IN - OUT =          -0.2306              IN - OUT =      -1.4358E-02

 PERCENT DISCREPANCY =          -0.00     PERCENT DISCREPANCY =          -0.00




         TIME SUMMARY AT END OF TIME STEP    1 IN STRESS PERIOD   16
                    SECONDS     MINUTES      HOURS       DAYS        YEARS
                    -----------------------------------------------------------
   TIME STEP LENGTH  86400.      1440.0      24.000      1.0000     2.73785E-03
 STRESS PERIOD TIME  86400.      1440.0      24.000      1.0000     2.73785E-03
         TOTAL TIME 1.38240E+06  23040.      384.00      16.000     4.38056E-02


end timestep


start timestep kper="17" kstp="1" mode="normal"

 #Stressperiod Save Options

 BEGIN READING OUTPUT CONTROL FOR STRESS PERIOD 17
      ALL TIME STEPS WILL BE SAVED
      ALL TIME STEPS WILL BE SAVED

 END READING OUTPUT CONTROL FOR STRESS PERIOD 17


 PROCESSING STORAGE PERIOD DATA
 END PROCESSING STORAGE PERIOD DATA


 STRESS PERIOD 17 IS TRANSIENT


 REUSING WELS FROM LAST STRESS PERIOD

 REUSING DRNS FROM LAST STRESS PERIOD

 REUSING RIVS FROM LAST STRESS PERIOD

 REUSING RIVS FROM LAST STRESS PERIOD

 REUSING RCHS FROM LAST STRESS PERIOD
 UBDSV06 SAVING              DRN IN MODEL GWF_1            PACKAGE GWF_1           CONNECTED TO MODEL GWF_1            PACKAGE DRN_SYS1         ON UNIT   1019 AT TIME STEP      1, STRESS PERIOD     17
 UBDSV06 SAVING              RIV IN MODEL GWF_1            PACKAGE GWF_1           CONNECTED TO MODEL GWF_1            PACKAGE RIV_SYS1         ON UNIT   1019 AT TIME STEP      1, STRESS PERIOD     17
 UBDSV06 SAVING              RIV IN MODEL GWF_1            PACKAGE GWF_1           CONNECTED TO MODEL GWF_1            PACKAGE RIV_SYS2         ON UNIT   1019 AT TIME STEP      1, STRESS PERIOD     17

 HEAD WILL BE SAVED ON UNIT 1018 AT END OF TIME STEP    1, STRESS PERIOD   17


  VOLUME BUDGET FOR ENTIRE MODEL AT END OF TIME STEP    1, STRESS PERIOD  17
  ---------------------------------------------------------------------------------------------------

     CUMULATIVE VOLUME      L**3       RATES FOR THIS TIME STEP      L**3/T          PACKAGE NAME    
     ------------------                 ------------------------                     ----------------

           IN:                                      IN:
           ---                                      ---
              STO-SS =       36354.7407                STO-SS =        1160.6076     STORAGE                          
                 WEL =       20548.5986                   WEL =         453.3001     RIV_CORR                         
                 DRN =           0.0000                   DRN =           0.0000     DRN_SYS1                         
                 RIV =       13232.3110                   RIV =         543.8454     RIV_SYS1                         
                 RIV =           0.0000                   RIV =           0.0000     RIV_SYS2                         
                 RCH =       40052.2018                   RCH =        1122.3926     RCH_MSW                          

            TOTAL IN =      110187.8521              TOTAL IN =        3280.1456

          OUT:                                     OUT:
          ----                                     ----
              STO-SS =       23728.6002                STO-SS =           0.0000     STORAGE                          
                 WEL =       32687.7467                   WEL =        1140.3177     RIV_CORR                         
[...]

 REUSING RIVS FROM LAST STRESS PERIOD

 REUSING RIVS FROM LAST STRESS PERIOD

 REUSING RCHS FROM LAST STRESS PERIOD
 UBDSV06 SAVING              DRN IN MODEL GWF_1            PACKAGE GWF_1           CONNECTED TO MODEL GWF_1            PACKAGE DRN_SYS1         ON UNIT   1019 AT TIME STEP      1, STRESS PERIOD    361
 UBDSV06 SAVING              RIV IN MODEL GWF_1            PACKAGE GWF_1           CONNECTED TO MODEL GWF_1            PACKAGE RIV_SYS1         ON UNIT   1019 AT TIME STEP      1, STRESS PERIOD    361
 UBDSV06 SAVING              RIV IN MODEL GWF_1            PACKAGE GWF_1           CONNECTED TO MODEL GWF_1            PACKAGE RIV_SYS2         ON UNIT   1019 AT TIME STEP      1, STRESS PERIOD    361

 HEAD WILL BE SAVED ON UNIT 1018 AT END OF TIME STEP    1, STRESS PERIOD  361


  VOLUME BUDGET FOR ENTIRE MODEL AT END OF TIME STEP    1, STRESS PERIOD 361
  ---------------------------------------------------------------------------------------------------

     CUMULATIVE VOLUME      L**3       RATES FOR THIS TIME STEP      L**3/T          PACKAGE NAME    
     ------------------                 ------------------------                     ----------------

           IN:                                      IN:
           ---                                      ---
              STO-SS =      298518.8025                STO-SS =           0.0000     STORAGE                          
                 WEL =      299722.9330                   WEL =         423.5073     RIV_CORR                         
                 DRN =           0.0000                   DRN =           0.0000     DRN_SYS1                         
                 RIV =      291981.1370                   RIV =         118.3371     RIV_SYS1                         
                 RIV =           0.0000                   RIV =           0.0000     RIV_SYS2                         
                 RCH =      591208.7625                   RCH =       24497.0597     RCH_MSW                          

            TOTAL IN =     1481431.6349              TOTAL IN =       25038.9041

          OUT:                                     OUT:
          ----                                     ----
              STO-SS =      247133.9570                STO-SS =       18519.5114     STORAGE                          
                 WEL =      377441.2028                   WEL =        1248.2876     RIV_CORR                         
                 DRN =       93098.7487                   DRN =         299.9935     DRN_SYS1                         
                 RIV =      370603.7458                   RIV =        4176.1867     RIV_SYS1                         
                 RIV =      250629.9148                   RIV =         794.9267     RIV_SYS2                         
                 RCH =      142528.2330                   RCH =           0.0000     RCH_MSW                          

           TOTAL OUT =     1481435.8021             TOTAL OUT =       25038.9058

            IN - OUT =          -4.1672              IN - OUT =      -1.6908E-03

 PERCENT DISCREPANCY =          -0.00     PERCENT DISCREPANCY =          -0.00




         TIME SUMMARY AT END OF TIME STEP    1 IN STRESS PERIOD  361
                    SECONDS     MINUTES      HOURS       DAYS        YEARS
                    -----------------------------------------------------------
   TIME STEP LENGTH  86400.      1440.0      24.000      1.0000     2.73785E-03
 STRESS PERIOD TIME  86400.      1440.0      24.000      1.0000     2.73785E-03
         TOTAL TIME 3.11904E+07 5.19840E+05  8664.0      361.00     0.98836    


end timestep


start timestep kper="362" kstp="1" mode="normal"

 #Stressperiod Save Options

 BEGIN READING OUTPUT CONTROL FOR STRESS PERIOD 362
      ALL TIME STEPS WILL BE SAVED
      ALL TIME STEPS WILL BE SAVED

 END READING OUTPUT CONTROL FOR STRESS PERIOD 362


 PROCESSING STORAGE PERIOD DATA
 END PROCESSING STORAGE PERIOD DATA


 STRESS PERIOD 362 IS TRANSIENT


 REUSING WELS FROM LAST STRESS PERIOD

 REUSING DRNS FROM LAST STRESS PERIOD

 REUSING RIVS FROM LAST STRESS PERIOD

 REUSING RIVS FROM LAST STRESS PERIOD

 REUSING RCHS FROM LAST STRESS PERIOD
 UBDSV06 SAVING              DRN IN MODEL GWF_1            PACKAGE GWF_1           CONNECTED TO MODEL GWF_1            PACKAGE DRN_SYS1         ON UNIT   1019 AT TIME STEP      1, STRESS PERIOD    362
 UBDSV06 SAVING              RIV IN MODEL GWF_1            PACKAGE GWF_1           CONNECTED TO MODEL GWF_1            PACKAGE RIV_SYS1         ON UNIT   1019 AT TIME STEP      1, STRESS PERIOD    362
 UBDSV06 SAVING              RIV IN MODEL GWF_1            PACKAGE GWF_1           CONNECTED TO MODEL GWF_1            PACKAGE RIV_SYS2         ON UNIT   1019 AT TIME STEP      1, STRESS PERIOD    362

 HEAD WILL BE SAVED ON UNIT 1018 AT END OF TIME STEP    1, STRESS PERIOD  362


  VOLUME BUDGET FOR ENTIRE MODEL AT END OF TIME STEP    1, STRESS PERIOD 362
  ---------------------------------------------------------------------------------------------------

     CUMULATIVE VOLUME      L**3       RATES FOR THIS TIME STEP      L**3/T          PACKAGE NAME    
     ------------------                 ------------------------                     ----------------

           IN:                                      IN:
           ---                                      ---
              STO-SS =      303417.4481                STO-SS =        4898.6456     STORAGE                          
                 WEL =      299841.2701                   WEL =         118.3371     RIV_CORR                         
                 DRN =           0.0000                   DRN =           0.0000     DRN_SYS1                         
                 RIV =      292318.5164                   RIV =         337.3794     RIV_SYS1                         
                 RIV =           0.0000                   RIV =           0.0000     RIV_SYS2                         
                 RCH =      602433.1226                   RCH =       11224.3601     RCH_MSW                          

            TOTAL IN =     1498010.3572              TOTAL IN =       16578.7223

          OUT:                                     OUT:
          ----                                     ----
              STO-SS =      252764.0064                STO-SS =        5630.0494     STORAGE                          
                 WEL =      381617.3895                   WEL =        4176.1867     RIV_CORR                         
                 DRN =       93415.0950                   DRN =         316.3463     DRN_SYS1                         
                 RIV =      372656.9093                   RIV =        2053.1635     RIV_SYS1                         
                 RIV =      251473.3084                   RIV =         843.3936     RIV_SYS2                         
                 RCH =      146087.8294                   RCH =        3559.5964     RCH_MSW                          

           TOTAL OUT =     1498014.5380             TOTAL OUT =       16578.7359

            IN - OUT =          -4.1808              IN - OUT =      -1.3633E-02

 PERCENT DISCREPANCY =          -0.00     PERCENT DISCREPANCY =          -0.00




         TIME SUMMARY AT END OF TIME STEP    1 IN STRESS PERIOD  362
                    SECONDS     MINUTES      HOURS       DAYS        YEARS
                    -----------------------------------------------------------
   TIME STEP LENGTH  86400.      1440.0      24.000      1.0000     2.73785E-03
 STRESS PERIOD TIME  86400.      1440.0      24.000      1.0000     2.73785E-03
         TOTAL TIME 3.12768E+07 5.21280E+05  8688.0      362.00     0.99110    


end timestep


start timestep kper="363" kstp="1" mode="normal"

 #Stressperiod Save Options

 BEGIN READING OUTPUT CONTROL FOR STRESS PERIOD 363
      ALL TIME STEPS WILL BE SAVED
      ALL TIME STEPS WILL BE SAVED

 END READING OUTPUT CONTROL FOR STRESS PERIOD 363


 PROCESSING STORAGE PERIOD DATA
 END PROCESSING STORAGE PERIOD DATA


 STRESS PERIOD 363 IS TRANSIENT


 REUSING WELS FROM LAST STRESS PERIOD

 REUSING DRNS FROM LAST STRESS PERIOD

 REUSING RIVS FROM LAST STRESS PERIOD

 REUSING RIVS FROM LAST STRESS PERIOD

 REUSING RCHS FROM LAST STRESS PERIOD
 UBDSV06 SAVING              DRN IN MODEL GWF_1            PACKAGE GWF_1           CONNECTED TO MODEL GWF_1            PACKAGE DRN_SYS1         ON UNIT   1019 AT TIME STEP      1, STRESS PERIOD    363
 UBDSV06 SAVING              RIV IN MODEL GWF_1            PACKAGE GWF_1           CONNECTED TO MODEL GWF_1            PACKAGE RIV_SYS1         ON UNIT   1019 AT TIME STEP      1, STRESS PERIOD    363
 UBDSV06 SAVING              RIV IN MODEL GWF_1            PACKAGE GWF_1           CONNECTED TO MODEL GWF_1            PACKAGE RIV_SYS2         ON UNIT   1019 AT TIME STEP      1, STRESS PERIOD    363

 HEAD WILL BE SAVED ON UNIT 1018 AT END OF TIME STEP    1, STRESS PERIOD  363


  VOLUME BUDGET FOR ENTIRE MODEL AT END OF TIME STEP    1, STRESS PERIOD 363
  ---------------------------------------------------------------------------------------------------

     CUMULATIVE VOLUME      L**3       RATES FOR THIS TIME STEP      L**3/T          PACKAGE NAME    
     ------------------                 ------------------------                     ----------------

           IN:                                      IN:
           ---                                      ---
              STO-SS =      303417.4481                STO-SS =           0.0000     STORAGE                          
                 WEL =      300178.6495                   WEL =         337.3794     RIV_CORR                         
                 DRN =           0.0000                   DRN =           0.0000     DRN_SYS1                         
                 RIV =      292450.0946                   RIV =         131.5782     RIV_SYS1                         
                 RIV =           0.0000                   RIV =           0.0000     RIV_SYS2                         
                 RCH =      615254.4184                   RCH =       12821.2958     RCH_MSW                          

            TOTAL IN =     1511300.6105              TOTAL IN =       13290.2534

          OUT:                                     OUT:
          ----                                     ----
              STO-SS =      259599.6672                STO-SS =        6835.6608     STORAGE                          
                 WEL =      383670.5530                   WEL =        2053.1635     RIV_CORR                         
                 DRN =       93745.4957                   DRN =         330.4007     DRN_SYS1                         
                 RIV =      375844.8690                   RIV =        3187.9597     RIV_SYS1                         
                 RIV =      252356.3862                   RIV =         883.0778     RIV_SYS2                         
                 RCH =      146087.8294                   RCH =           0.0000     RCH_MSW                          

           TOTAL OUT =     1511304.8005             TOTAL OUT =       13290.2626

            IN - OUT =          -4.1900              IN - OUT =      -9.1701E-03

 PERCENT DISCREPANCY =          -0.00     PERCENT DISCREPANCY =          -0.00




         TIME SUMMARY AT END OF TIME STEP    1 IN STRESS PERIOD  363
                    SECONDS     MINUTES      HOURS       DAYS        YEARS
                    -----------------------------------------------------------
   TIME STEP LENGTH  86400.      1440.0      24.000      1.0000     2.73785E-03
 STRESS PERIOD TIME  86400.      1440.0      24.000      1.0000     2.73785E-03
         TOTAL TIME 3.13632E+07 5.22720E+05  8712.0      363.00     0.99384    


end timestep


start timestep kper="364" kstp="1" mode="normal"

 #Stressperiod Save Options

 BEGIN READING OUTPUT CONTROL FOR STRESS PERIOD 364
      ALL TIME STEPS WILL BE SAVED
      ALL TIME STEPS WILL BE SAVED

 END READING OUTPUT CONTROL FOR STRESS PERIOD 364


 PROCESSING STORAGE PERIOD DATA
 END PROCESSING STORAGE PERIOD DATA


 STRESS PERIOD 364 IS TRANSIENT


 REUSING WELS FROM LAST STRESS PERIOD

 REUSING DRNS FROM LAST STRESS PERIOD

 REUSING RIVS FROM LAST STRESS PERIOD

 REUSING RIVS FROM LAST STRESS PERIOD

 REUSING RCHS FROM LAST STRESS PERIOD
 UBDSV06 SAVING              DRN IN MODEL GWF_1            PACKAGE GWF_1           CONNECTED TO MODEL GWF_1            PACKAGE DRN_SYS1         ON UNIT   1019 AT TIME STEP      1, STRESS PERIOD    364
 UBDSV06 SAVING              RIV IN MODEL GWF_1            PACKAGE GWF_1           CONNECTED TO MODEL GWF_1            PACKAGE RIV_SYS1         ON UNIT   1019 AT TIME STEP      1, STRESS PERIOD    364
 UBDSV06 SAVING              RIV IN MODEL GWF_1            PACKAGE GWF_1           CONNECTED TO MODEL GWF_1            PACKAGE RIV_SYS2         ON UNIT   1019 AT TIME STEP      1, STRESS PERIOD    364

 HEAD WILL BE SAVED ON UNIT 1018 AT END OF TIME STEP    1, STRESS PERIOD  364


  VOLUME BUDGET FOR ENTIRE MODEL AT END OF TIME STEP    1, STRESS PERIOD 364
  ---------------------------------------------------------------------------------------------------

     CUMULATIVE VOLUME      L**3       RATES FOR THIS TIME STEP      L**3/T          PACKAGE NAME    
     ------------------                 ------------------------                     ----------------

           IN:                                      IN:
           ---                                      ---
              STO-SS =      304664.7494                STO-SS =        1247.3013     STORAGE                          
                 WEL =      300310.2277                   WEL =         131.5782     RIV_CORR                         
                 DRN =           0.0000                   DRN =           0.0000     DRN_SYS1                         
                 RIV =      292648.9135                   RIV =         198.8189     RIV_SYS1                         
                 RIV =           0.0000                   RIV =           0.0000     RIV_SYS2                         
                 RCH =      624541.6201                   RCH =        9287.2017     RCH_MSW                          

            TOTAL IN =     1522165.5106              TOTAL IN =       10864.9001

          OUT:                                     OUT:
          ----                                     ----
              STO-SS =      262581.5623                STO-SS =        2981.8950     STORAGE                          
                 WEL =      386858.5127                   WEL =        3187.9597     RIV_CORR                         
                 DRN =       94083.0760                   DRN =         337.5803     DRN_SYS1                         
                 RIV =      378392.6781                   RIV =        2547.8091     RIV_SYS1                         
                 RIV =      253260.5347                   RIV =         904.1485     RIV_SYS2                         
                 RCH =      146993.3019                   RCH =         905.4725     RCH_MSW                          

           TOTAL OUT =     1522169.6657             TOTAL OUT =       10864.8652

            IN - OUT =          -4.1551              IN - OUT =       3.4914E-02

 PERCENT DISCREPANCY =          -0.00     PERCENT DISCREPANCY =           0.00




         TIME SUMMARY AT END OF TIME STEP    1 IN STRESS PERIOD  364
                    SECONDS     MINUTES      HOURS       DAYS        YEARS
                    -----------------------------------------------------------
   TIME STEP LENGTH  86400.      1440.0      24.000      1.0000     2.73785E-03
 STRESS PERIOD TIME  86400.      1440.0      24.000      1.0000     2.73785E-03
         TOTAL TIME 3.14496E+07 5.24160E+05  8736.0      364.00     0.99658    


end timestep


start timestep kper="365" kstp="1" mode="normal"

 #Stressperiod Save Options

 BEGIN READING OUTPUT CONTROL FOR STRESS PERIOD 365
      ALL TIME STEPS WILL BE SAVED
      ALL TIME STEPS WILL BE SAVED

 END READING OUTPUT CONTROL FOR STRESS PERIOD 365


 PROCESSING STORAGE PERIOD DATA
 END PROCESSING STORAGE PERIOD DATA


 STRESS PERIOD 365 IS TRANSIENT


 REUSING WELS FROM LAST STRESS PERIOD

 REUSING DRNS FROM LAST STRESS PERIOD

 REUSING RIVS FROM LAST STRESS PERIOD

 REUSING RIVS FROM LAST STRESS PERIOD

 REUSING RCHS FROM LAST STRESS PERIOD
 UBDSV06 SAVING              DRN IN MODEL GWF_1            PACKAGE GWF_1           CONNECTED TO MODEL GWF_1            PACKAGE DRN_SYS1         ON UNIT   1019 AT TIME STEP      1, STRESS PERIOD    365
 UBDSV06 SAVING              RIV IN MODEL GWF_1            PACKAGE GWF_1           CONNECTED TO MODEL GWF_1            PACKAGE RIV_SYS1         ON UNIT   1019 AT TIME STEP      1, STRESS PERIOD    365
 UBDSV06 SAVING              RIV IN MODEL GWF_1            PACKAGE GWF_1           CONNECTED TO MODEL GWF_1            PACKAGE RIV_SYS2         ON UNIT   1019 AT TIME STEP      1, STRESS PERIOD    365

 HEAD WILL BE SAVED ON UNIT 1018 AT END OF TIME STEP    1, STRESS PERIOD  365


  VOLUME BUDGET FOR ENTIRE MODEL AT END OF TIME STEP    1, STRESS PERIOD 365
  ---------------------------------------------------------------------------------------------------

     CUMULATIVE VOLUME      L**3       RATES FOR THIS TIME STEP      L**3/T          PACKAGE NAME    
     ------------------                 ------------------------                     ----------------

           IN:                                      IN:
           ---                                      ---
              STO-SS =      305365.4975                STO-SS =         700.7481     STORAGE                          
                 WEL =      300509.0465                   WEL =         198.8189     RIV_CORR                         
                 DRN =           0.0000                   DRN =           0.0000     DRN_SYS1                         
                 RIV =      292853.6672                   RIV =         204.7538     RIV_SYS1                         
                 RIV =           0.0000                   RIV =           0.0000     RIV_SYS2                         
                 RCH =      630705.7455                   RCH =        6164.1254     RCH_MSW                          

            TOTAL IN =     1529433.9568              TOTAL IN =        7268.4461

          OUT:                                     OUT:
          ----                                     ----
              STO-SS =      263496.7295                STO-SS =         915.1672     STORAGE                          
                 WEL =      389406.3218                   WEL =        2547.8091     RIV_CORR                         
                 DRN =       94420.7468                   DRN =         337.6708     DRN_SYS1                         
                 RIV =      380915.7987                   RIV =        2523.1206     RIV_SYS1                         
                 RIV =      254166.3946                   RIV =         905.8599     RIV_SYS2                         
                 RCH =      147032.1231                   RCH =          38.8212     RCH_MSW                          

           TOTAL OUT =     1529438.1145             TOTAL OUT =        7268.4488

            IN - OUT =          -4.1578              IN - OUT =      -2.6953E-03

 PERCENT DISCREPANCY =          -0.00     PERCENT DISCREPANCY =          -0.00




         TIME SUMMARY AT END OF TIME STEP    1 IN STRESS PERIOD  365
                    SECONDS     MINUTES      HOURS       DAYS        YEARS
                    -----------------------------------------------------------
   TIME STEP LENGTH  86400.      1440.0      24.000      1.0000     2.73785E-03
 STRESS PERIOD TIME  86400.      1440.0      24.000      1.0000     2.73785E-03
         TOTAL TIME 3.15360E+07 5.25600E+05  8760.0      365.00     0.99932    


end timestep

