                                   MODFLOW 6
                U.S. GEOLOGICAL SURVEY MODULAR HYDROLOGIC MODEL
                          GROUNDWATER FLOW MODEL (GWF)
                  VERSION 6.5.0.dev0 (preliminary) 07/13/2023
                               ***DEVELOP MODE***

   MODFLOW 6 compiled Nov 13 2023 06:01:23 with Intel(R) Fortran Intel(R) 64
   Compiler Classic for applications running on Intel(R) 64, Version 2021.9.0
                             Build 20230302_000000

This software is preliminary or provisional and is subject to 
revision. It is being provided to meet the need for timely best 
science. The software has not received final approval by the U.S. 
Geological Survey (USGS). No warranty, expressed or implied, is made 
by the USGS or the U.S. Government as to the functionality of the 
software and related material nor shall the fact of release 
constitute any such warranty. The software is provided on the 
condition that neither the USGS nor the U.S. Government shall be held 
liable for any damages resulting from the authorized or unauthorized 
use of the software.


As a work of the United States Government, this USGS product is 
in the public domain within the United States. You can copy, 
modify, distribute, and perform the work, even for commercial 
purposes, all without asking permission. Additionally, USGS 
waives copyright and related rights in the work worldwide 
through CC0 1.0 Universal Public Domain Dedication 
(https://creativecommons.org/publicdomain/zero/1.0/).

The following GNU Lesser General Public License (LGPL) libraries
are used in this USGS product:

    SPARSKIT version 2.0
      ilut, luson, and qsplit 
      (https://www-users.cse.umn.edu/~saad/software/SPARSKIT/)

    RCM - Reverse Cuthill McKee Ordering
      (https://people.math.sc.edu/Burkardt/f_src/rcm/rcm.html)

    BLAS - Basic Linear Algebra Subprograms Level 1
      (https://people.math.sc.edu/Burkardt/f_src/blas1_d/blas1_d.html)

    SPARSEKIT - Sparse Matrix Utility Package
      amux, dperm, dvperm, rperm, and cperm
      (https://people.sc.fsu.edu/~jburkardt/f77_src/sparsekit/sparsekit.html)

The following BSD-3 License libraries are used in this USGS product:

    Modern Fortran DAG Library
      Copyright (c) 2018, Jacob Williams
      All rights reserved.
      (https://github.com/jacobwilliams/daglib)

MODFLOW 6 compiler options: /Isrc\libmf6core.a.p /Isrc /I..\src
/Isrc\libmf6_external.a.p /MTd /nologo /warn:general /warn:truncated_source
/stand:f08 /Zi /traceback /O2 /fpe:0 /heap-arrays:0 /traceback /fpp
/Qdiag-disable:7416 /Qdiag-disable:7025 /Qdiag-disable:5268
/Fdsrc\libmf6core.a.p\Utilities_compilerversion.F90.pdb
/module:src\libmf6core.a.p
/Fosrc/libmf6core.a.p/Utilities_compilerversion.F90.obj /c

System command used to initiate simulation:
C:\IMOD-python\forge\envs\imod_coupler_riba\python.exe c:\Users\kok_hk\.vscode\extensions\ms-python.python-2023.20.0\pythonFiles\lib\python\debugpy\launcher/../..\debugpy --connect 127.0.0.1:63195 --configure-qt none --adapter-access-token cfd2a57bd7a4ce494fec3d04420f527c9ef07ac0399319c0b31303642e4fd0b0 C:\src\imod_coupler\imod_coupler\drivers\metamod\test.py

MODFLOW was compiled using uniform precision.

Real Variables
  KIND: 8
  TINY (smallest non-zero value):    2.225074-308
  HUGE (largest value):    1.797693+308
  PRECISION: 15
  SIZE IN BITS: 64

Integer Variables
  KIND: 4
  HUGE (largest value): 2147483647
  SIZE IN BITS: 32

Long Integer Variables
  KIND: 8
  HUGE (largest value): 9223372036854775807
  SIZE IN BITS: 64

Logical Variables
  KIND: 4
  SIZE IN BITS: 32
 
 NAMEFILE OPTIONS:
 END NAMEFILE OPTIONS:

 DIS -- STRUCTURED GRID DISCRETIZATION PACKAGE, VERSION 2 : 3/27/2014 - INPUT READ FROM MEMPATH: __INPUT__/GWF_1/DIS                               


 NPF -- NODE PROPERTY FLOW PACKAGE, VERSION 1, 3/30/2015 INPUT READ FROM MEMPATH: __INPUT__/GWF_1/NPF                               


 IC -- Initial Conditions Package, Version 8, 3/28/2015 input read from mempath: __INPUT__/GWF_1/IC                                


 Setting Discretization Options
    XORIGIN = 50.00000000000000
    YORIGIN = 50.00000000000000
 End Setting Discretization Options

 Setting Discretization Dimensions
    NLAY = 3
    NROW = 3
    NCOL = 5
 End Setting Discretization Dimensions

 Setting Discretization Griddata
    DELR set from input file
    DELC set from input file
    TOP set from input file
    BOTM set from input file
    IDOMAIN set from input file
 End Setting Discretization Griddata

 Setting NPF Options
    Cell-by-cell flow information will be saved to binary file whenever ICBCFL is not zero.
    Vertical conductance varies with water table.
 End Setting NPF Options

 Setting NPF Griddata
    ICELLTYPE set from input file
    K set from input file
    K33 set from input file
    K22 not provided.  Setting K22 = K.
 End Setting NPF Griddata


 RIV   -- RIV PACKAGE, VERSION 8, 2/22/2014 INPUT READ FROM MEMPATH: __INPUT__/GWF_1/RIV-1                             

 PROCESSING RIV BASE OPTIONS
    FLOWS WILL BE SAVED TO BUDGET FILE SPECIFIED IN OUTPUT CONTROL
 END OF RIV BASE OPTIONS

 PROCESSING RIV OPTIONS
 END OF RIV OPTIONS

 PROCESSING RIV BASE DIMENSIONS
    MAXBOUND =       1
 END OF RIV BASE DIMENSIONS

 RCH   -- RCH PACKAGE, VERSION 8, 2/22/2014 INPUT READ FROM MEMPATH: __INPUT__/GWF_1/RCH_MSW                           

 PROCESSING RCH BASE OPTIONS
    FLOWS WILL BE SAVED TO BUDGET FILE SPECIFIED IN OUTPUT CONTROL
 END OF RCH BASE OPTIONS

 PROCESSING RCH OPTIONS
 END OF RCH OPTIONS

 PROCESSING RCH BASE DIMENSIONS
    MAXBOUND =      15
 END OF RCH BASE DIMENSIONS
    STRT set from input file

 STO -- STORAGE PACKAGE, VERSION 1, 5/19/2014 INPUT READ FROM UNIT 1006


 PROCESSING STORAGE OPTIONS
 END OF STORAGE OPTIONS
 PROCESSING GRIDDATA

                 ICONVERT = 0

         SPECIFIC STORAGE =  0.1000000E-02

           SPECIFIC YIELD =  0.1000000    
 END PROCESSING GRIDDATA
    BINARY GRID INFORMATION WILL BE WRITTEN TO:
      UNIT NUMBER: 1015
      FILE NAME: GWF_1/dis.dis.grb

 OPENED GWF_1/dis.dis.grb
 FILE TYPE:DATA(BINARY)   UNIT 1015   STATUS:REPLACE             
 FORMAT:UNFORMATTED            ACCESS:STREAM              
 ACTION:READWRITE           

      THE LAST TIME STEP WILL BE PRINTED
      THE LAST TIME STEP WILL BE PRINTED

 PROCESSING OC OPTIONS

    BUDGET INFORMATION WILL BE WRITTEN TO:
      UNIT NUMBER: 1016
      FILE NAME: GWF_1/GWF_1.cbc

 OPENED GWF_1/GWF_1.cbc
 FILE TYPE:DATA(BINARY)   UNIT 1016   STATUS:REPLACE             
 FORMAT:UNFORMATTED            ACCESS:STREAM              
 ACTION:READWRITE           

    HEAD INFORMATION WILL BE WRITTEN TO:
      UNIT NUMBER: 1017
      FILE NAME: GWF_1/GWF_1.hds

 OPENED GWF_1/GWF_1.hds
 FILE TYPE:DATA(BINARY)   UNIT 1017   STATUS:REPLACE             
 FORMAT:UNFORMATTED            ACCESS:STREAM              
 ACTION:READWRITE           

 END OF OC OPTIONS

start timestep kper="1" kstp="1" mode="normal"


 BEGIN READING OUTPUT CONTROL FOR STRESS PERIOD 1
      THE LAST TIME STEP WILL BE SAVED
      THE LAST TIME STEP WILL BE SAVED

 END READING OUTPUT CONTROL FOR STRESS PERIOD 1


 PROCESSING STORAGE PERIOD DATA
 END PROCESSING STORAGE PERIOD DATA


 STRESS PERIOD 1 IS TRANSIENT

 UBDSV1 SAVING     FLOW-JA-FACE ON UNIT   1016 AT TIME STEP      1, STRESS PERIOD      1
 UBDSV06 SAVING              RIV IN MODEL GWF_1            PACKAGE GWF_1           CONNECTED TO MODEL GWF_1            PACKAGE RIV-1            ON UNIT   1016 AT TIME STEP      1, STRESS PERIOD      1
 UBDSV06 SAVING              RCH IN MODEL GWF_1            PACKAGE GWF_1           CONNECTED TO MODEL GWF_1            PACKAGE RCH_MSW          ON UNIT   1016 AT TIME STEP      1, STRESS PERIOD      1

 HEAD WILL BE SAVED ON UNIT 1017 AT END OF TIME STEP    1, STRESS PERIOD    1


  VOLUME BUDGET FOR ENTIRE MODEL AT END OF TIME STEP    1, STRESS PERIOD   1
  ---------------------------------------------------------------------------------------------------

     CUMULATIVE VOLUME      L**3       RATES FOR THIS TIME STEP      L**3/T          PACKAGE NAME    
     ------------------                 ------------------------                     ----------------

           IN:                                      IN:
           ---                                      ---
              STO-SS =           0.0000                STO-SS =           0.0000     STORAGE                          
                 RIV =           0.0000                   RIV =           0.0000     RIV-1                            
                 RCH =        1822.4643                   RCH =        1822.4643     RCH_MSW                          

            TOTAL IN =        1822.4643              TOTAL IN =        1822.4643

          OUT:                                     OUT:
          ----                                     ----
              STO-SS =        1822.4643                STO-SS =        1822.4643     STORAGE                          
                 RIV =           0.0000                   RIV =           0.0000     RIV-1                            
                 RCH =           0.0000                   RCH =           0.0000     RCH_MSW                          

           TOTAL OUT =        1822.4643             TOTAL OUT =        1822.4643

            IN - OUT =       1.1341E-09              IN - OUT =       1.1341E-09

 PERCENT DISCREPANCY =           0.00     PERCENT DISCREPANCY =           0.00




         TIME SUMMARY AT END OF TIME STEP    1 IN STRESS PERIOD    1
                    SECONDS     MINUTES      HOURS       DAYS        YEARS
                    -----------------------------------------------------------
   TIME STEP LENGTH  86400.      1440.0      24.000      1.0000     2.73785E-03
 STRESS PERIOD TIME  86400.      1440.0      24.000      1.0000     2.73785E-03
         TOTAL TIME  86400.      1440.0      24.000      1.0000     2.73785E-03


end timestep


start timestep kper="2" kstp="1" mode="normal"


 END OF FILE DETECTED IN OUTPUT CONTROL.
 CURRENT OUTPUT CONTROL SETTINGS WILL BE 
 REPEATED UNTIL THE END OF THE SIMULATION.

 OUTPUT CONTROL FOR STRESS PERIOD 2 IS REPEATED USING SETTINGS FROM A PREVIOUS STRESS PERIOD.


 STRESS PERIOD 2 IS TRANSIENT

 UBDSV1 SAVING     FLOW-JA-FACE ON UNIT   1016 AT TIME STEP      1, STRESS PERIOD      2
 UBDSV06 SAVING              RIV IN MODEL GWF_1            PACKAGE GWF_1           CONNECTED TO MODEL GWF_1            PACKAGE RIV-1            ON UNIT   1016 AT TIME STEP      1, STRESS PERIOD      2
 UBDSV06 SAVING              RCH IN MODEL GWF_1            PACKAGE GWF_1           CONNECTED TO MODEL GWF_1            PACKAGE RCH_MSW          ON UNIT   1016 AT TIME STEP      1, STRESS PERIOD      2

 HEAD WILL BE SAVED ON UNIT 1017 AT END OF TIME STEP    1, STRESS PERIOD    2


  VOLUME BUDGET FOR ENTIRE MODEL AT END OF TIME STEP    1, STRESS PERIOD   2
  ---------------------------------------------------------------------------------------------------

     CUMULATIVE VOLUME      L**3       RATES FOR THIS TIME STEP      L**3/T          PACKAGE NAME    
     ------------------                 ------------------------                     ----------------

           IN:                                      IN:
           ---                                      ---
              STO-SS =           0.0000                STO-SS =           0.0000     STORAGE                          
                 RIV =           0.0000                   RIV =           0.0000     RIV-1                            
                 RCH =        3265.0056                   RCH =        1442.5413     RCH_MSW                          

            TOTAL IN =        3265.0056              TOTAL IN =        1442.5413

          OUT:                                     OUT:
          ----                                     ----
              STO-SS =        3265.0056                STO-SS =        1442.5413     STORAGE                          
                 RIV =           0.0000                   RIV =           0.0000     RIV-1                            
                 RCH =           0.0000                   RCH =           0.0000     RCH_MSW                          

           TOTAL OUT =        3265.0056             TOTAL OUT =        1442.5413

            IN - OUT =       3.2924E-09              IN - OUT =       2.1582E-09

 PERCENT DISCREPANCY =           0.00     PERCENT DISCREPANCY =           0.00




         TIME SUMMARY AT END OF TIME STEP    1 IN STRESS PERIOD    2
                    SECONDS     MINUTES      HOURS       DAYS        YEARS
                    -----------------------------------------------------------
   TIME STEP LENGTH  86400.      1440.0      24.000      1.0000     2.73785E-03
 STRESS PERIOD TIME  86400.      1440.0      24.000      1.0000     2.73785E-03
         TOTAL TIME 1.72800E+05  2880.0      48.000      2.0000     5.47570E-03


end timestep


start timestep kper="3" kstp="1" mode="normal"


 OUTPUT CONTROL FOR STRESS PERIOD 3 IS REPEATED USING SETTINGS FROM A PREVIOUS STRESS PERIOD.


 STRESS PERIOD 3 IS TRANSIENT

 UBDSV1 SAVING     FLOW-JA-FACE ON UNIT   1016 AT TIME STEP      1, STRESS PERIOD      3
 UBDSV06 SAVING              RIV IN MODEL GWF_1            PACKAGE GWF_1           CONNECTED TO MODEL GWF_1            PACKAGE RIV-1            ON UNIT   1016 AT TIME STEP      1, STRESS PERIOD      3
 UBDSV06 SAVING              RCH IN MODEL GWF_1            PACKAGE GWF_1           CONNECTED TO MODEL GWF_1            PACKAGE RCH_MSW          ON UNIT   1016 AT TIME STEP      1, STRESS PERIOD      3

 HEAD WILL BE SAVED ON UNIT 1017 AT END OF TIME STEP    1, STRESS PERIOD    3


  VOLUME BUDGET FOR ENTIRE MODEL AT END OF TIME STEP    1, STRESS PERIOD   3
  ---------------------------------------------------------------------------------------------------

     CUMULATIVE VOLUME      L**3       RATES FOR THIS TIME STEP      L**3/T          PACKAGE NAME    
     ------------------                 ------------------------                     ----------------

           IN:                                      IN:
           ---                                      ---
              STO-SS =           0.0000                STO-SS =           0.0000     STORAGE                          
                 RIV =           0.0000                   RIV =           0.0000     RIV-1                            
                 RCH =        4403.7579                   RCH =        1138.7523     RCH_MSW                          

            TOTAL IN =        4403.7579              TOTAL IN =        1138.7523

          OUT:                                     OUT:
          ----                                     ----
              STO-SS =        4403.7579                STO-SS =        1138.7523     STORAGE                          
                 RIV =           0.0000                   RIV =           0.0000     RIV-1                            
                 RCH =           0.0000                   RCH =           0.0000     RCH_MSW                          

           TOTAL OUT =        4403.7579             TOTAL OUT =        1138.7523

            IN - OUT =       1.8545E-09              IN - OUT =      -1.4379E-09

 PERCENT DISCREPANCY =           0.00     PERCENT DISCREPANCY =          -0.00




         TIME SUMMARY AT END OF TIME STEP    1 IN STRESS PERIOD    3
                    SECONDS     MINUTES      HOURS       DAYS        YEARS
                    -----------------------------------------------------------
   TIME STEP LENGTH  86400.      1440.0      24.000      1.0000     2.73785E-03
 STRESS PERIOD TIME  86400.      1440.0      24.000      1.0000     2.73785E-03
         TOTAL TIME 2.59200E+05  4320.0      72.000      3.0000     8.21355E-03


end timestep


start timestep kper="4" kstp="1" mode="normal"


 OUTPUT CONTROL FOR STRESS PERIOD 4 IS REPEATED USING SETTINGS FROM A PREVIOUS STRESS PERIOD.


 STRESS PERIOD 4 IS TRANSIENT

 UBDSV1 SAVING     FLOW-JA-FACE ON UNIT   1016 AT TIME STEP      1, STRESS PERIOD      4
 UBDSV06 SAVING              RIV IN MODEL GWF_1            PACKAGE GWF_1           CONNECTED TO MODEL GWF_1            PACKAGE RIV-1            ON UNIT   1016 AT TIME STEP      1, STRESS PERIOD      4
 UBDSV06 SAVING              RCH IN MODEL GWF_1            PACKAGE GWF_1           CONNECTED TO MODEL GWF_1            PACKAGE RCH_MSW          ON UNIT   1016 AT TIME STEP      1, STRESS PERIOD      4

 HEAD WILL BE SAVED ON UNIT 1017 AT END OF TIME STEP    1, STRESS PERIOD    4


  VOLUME BUDGET FOR ENTIRE MODEL AT END OF TIME STEP    1, STRESS PERIOD   4
  ---------------------------------------------------------------------------------------------------

     CUMULATIVE VOLUME      L**3       RATES FOR THIS TIME STEP      L**3/T          PACKAGE NAME    
     ------------------                 ------------------------                     ----------------

           IN:                                      IN:
           ---                                      ---
              STO-SS =           0.0000                STO-SS =           0.0000     STORAGE                          
                 RIV =           0.0000                   RIV =           0.0000     RIV-1                            
                 RCH =        5331.5015                   RCH =         927.7436     RCH_MSW                          

            TOTAL IN =        5331.5015              TOTAL IN =         927.7436

          OUT:                                     OUT:
          ----                                     ----
              STO-SS =        5331.5015                STO-SS =         927.7436     STORAGE                          
                 RIV =           0.0000                   RIV =           0.0000     RIV-1                            
                 RCH =           0.0000                   RCH =           0.0000     RCH_MSW                          

           TOTAL OUT =        5331.5015             TOTAL OUT =         927.7436

            IN - OUT =       2.8022E-09              IN - OUT =       9.4758E-10

 PERCENT DISCREPANCY =           0.00     PERCENT DISCREPANCY =           0.00




         TIME SUMMARY AT END OF TIME STEP    1 IN STRESS PERIOD    4
                    SECONDS     MINUTES      HOURS       DAYS        YEARS
                    -----------------------------------------------------------
   TIME STEP LENGTH  86400.      1440.0      24.000      1.0000     2.73785E-03
 STRESS PERIOD TIME  86400.      1440.0      24.000      1.0000     2.73785E-03
         TOTAL TIME 3.45600E+05  5760.0      96.000      4.0000     1.09514E-02


end timestep


start timestep kper="5" kstp="1" mode="normal"


 OUTPUT CONTROL FOR STRESS PERIOD 5 IS REPEATED USING SETTINGS FROM A PREVIOUS STRESS PERIOD.


 STRESS PERIOD 5 IS TRANSIENT

 UBDSV1 SAVING     FLOW-JA-FACE ON UNIT   1016 AT TIME STEP      1, STRESS PERIOD      5
 UBDSV06 SAVING              RIV IN MODEL GWF_1            PACKAGE GWF_1           CONNECTED TO MODEL GWF_1            PACKAGE RIV-1            ON UNIT   1016 AT TIME STEP      1, STRESS PERIOD      5
 UBDSV06 SAVING              RCH IN MODEL GWF_1            PACKAGE GWF_1           CONNECTED TO MODEL GWF_1            PACKAGE RCH_MSW          ON UNIT   1016 AT TIME STEP      1, STRESS PERIOD      5

 HEAD WILL BE SAVED ON UNIT 1017 AT END OF TIME STEP    1, STRESS PERIOD    5


  VOLUME BUDGET FOR ENTIRE MODEL AT END OF TIME STEP    1, STRESS PERIOD   5
  ---------------------------------------------------------------------------------------------------

     CUMULATIVE VOLUME      L**3       RATES FOR THIS TIME STEP      L**3/T          PACKAGE NAME    
     ------------------                 ------------------------                     ----------------

           IN:                                      IN:
           ---                                      ---
              STO-SS =           0.0000                STO-SS =           0.0000     STORAGE                          
                 RIV =           0.0000                   RIV =           0.0000     RIV-1                            
                 RCH =        6101.6817                   RCH =         770.1802     RCH_MSW                          

            TOTAL IN =        6101.6817              TOTAL IN =         770.1802

          OUT:                                     OUT:
          ----                                     ----
              STO-SS =        6101.6817                STO-SS =         770.1802     STORAGE                          
                 RIV =           0.0000                   RIV =           0.0000     RIV-1                            
                 RCH =           0.0000                   RCH =           0.0000     RCH_MSW                          

           TOTAL OUT =        6101.6817             TOTAL OUT =         770.1802

            IN - OUT =       1.4024E-09              IN - OUT =      -1.3995E-09

 PERCENT DISCREPANCY =           0.00     PERCENT DISCREPANCY =          -0.00




         TIME SUMMARY AT END OF TIME STEP    1 IN STRESS PERIOD    5
                    SECONDS     MINUTES      HOURS       DAYS        YEARS
                    -----------------------------------------------------------
   TIME STEP LENGTH  86400.      1440.0      24.000      1.0000     2.73785E-03
 STRESS PERIOD TIME  86400.      1440.0      24.000      1.0000     2.73785E-03
         TOTAL TIME 4.32000E+05  7200.0      120.00      5.0000     1.36893E-02


end timestep


start timestep kper="6" kstp="1" mode="normal"


 OUTPUT CONTROL FOR STRESS PERIOD 6 IS REPEATED USING SETTINGS FROM A PREVIOUS STRESS PERIOD.


 STRESS PERIOD 6 IS TRANSIENT

 UBDSV1 SAVING     FLOW-JA-FACE ON UNIT   1016 AT TIME STEP      1, STRESS PERIOD      6
 UBDSV06 SAVING              RIV IN MODEL GWF_1            PACKAGE GWF_1           CONNECTED TO MODEL GWF_1            PACKAGE RIV-1            ON UNIT   1016 AT TIME STEP      1, STRESS PERIOD      6
 UBDSV06 SAVING              RCH IN MODEL GWF_1            PACKAGE GWF_1           CONNECTED TO MODEL GWF_1            PACKAGE RCH_MSW          ON UNIT   1016 AT TIME STEP      1, STRESS PERIOD      6

 HEAD WILL BE SAVED ON UNIT 1017 AT END OF TIME STEP    1, STRESS PERIOD    6


  VOLUME BUDGET FOR ENTIRE MODEL AT END OF TIME STEP    1, STRESS PERIOD   6
  ---------------------------------------------------------------------------------------------------

     CUMULATIVE VOLUME      L**3       RATES FOR THIS TIME STEP      L**3/T          PACKAGE NAME    
     ------------------                 ------------------------                     ----------------

           IN:                                      IN:
           ---                                      ---
              STO-SS =           0.0000                STO-SS =           0.0000     STORAGE                          
                 RIV =           0.0000                   RIV =           0.0000     RIV-1                            
                 RCH =        6756.4291                   RCH =         654.7475     RCH_MSW                          

            TOTAL IN =        6756.4291              TOTAL IN =         654.7475

          OUT:                                     OUT:
          ----                                     ----
              STO-SS =        6756.4291                STO-SS =         654.7475     STORAGE                          
                 RIV =           0.0000                   RIV =           0.0000     RIV-1                            
                 RCH =           0.0000                   RCH =           0.0000     RCH_MSW                          

           TOTAL OUT =        6756.4291             TOTAL OUT =         654.7475

            IN - OUT =       3.4670E-09              IN - OUT =       2.0648E-09

 PERCENT DISCREPANCY =           0.00     PERCENT DISCREPANCY =           0.00




         TIME SUMMARY AT END OF TIME STEP    1 IN STRESS PERIOD    6
                    SECONDS     MINUTES      HOURS       DAYS        YEARS
                    -----------------------------------------------------------
   TIME STEP LENGTH  86400.      1440.0      24.000      1.0000     2.73785E-03
 STRESS PERIOD TIME  86400.      1440.0      24.000      1.0000     2.73785E-03
         TOTAL TIME 5.18400E+05  8640.0      144.00      6.0000     1.64271E-02


end timestep


start timestep kper="7" kstp="1" mode="normal"


 OUTPUT CONTROL FOR STRESS PERIOD 7 IS REPEATED USING SETTINGS FROM A PREVIOUS STRESS PERIOD.


 STRESS PERIOD 7 IS TRANSIENT

 UBDSV1 SAVING     FLOW-JA-FACE ON UNIT   1016 AT TIME STEP      1, STRESS PERIOD      7
 UBDSV06 SAVING              RIV IN MODEL GWF_1            PACKAGE GWF_1           CONNECTED TO MODEL GWF_1            PACKAGE RIV-1            ON UNIT   1016 AT TIME STEP      1, STRESS PERIOD      7
 UBDSV06 SAVING              RCH IN MODEL GWF_1            PACKAGE GWF_1           CONNECTED TO MODEL GWF_1            PACKAGE RCH_MSW          ON UNIT   1016 AT TIME STEP      1, STRESS PERIOD      7

 HEAD WILL BE SAVED ON UNIT 1017 AT END OF TIME STEP    1, STRESS PERIOD    7


  VOLUME BUDGET FOR ENTIRE MODEL AT END OF TIME STEP    1, STRESS PERIOD   7
  ---------------------------------------------------------------------------------------------------

     CUMULATIVE VOLUME      L**3       RATES FOR THIS TIME STEP      L**3/T          PACKAGE NAME    
     ------------------                 ------------------------                     ----------------

           IN:                                      IN:
           ---                                      ---
              STO-SS =           0.0000                STO-SS =           0.0000     STORAGE                          
                 RIV =           0.0000                   RIV =           0.0000     RIV-1                            
                 RCH =        7322.0520                   RCH =         565.6229     RCH_MSW                          

            TOTAL IN =        7322.0520              TOTAL IN =         565.6229

          OUT:                                     OUT:
          ----                                     ----
              STO-SS =        7322.0520                STO-SS =         565.6229     STORAGE                          
                 RIV =           0.0000                   RIV =           0.0000     RIV-1                            
                 RCH =           0.0000                   RCH =           0.0000     RCH_MSW                          

           TOTAL OUT =        7322.0520             TOTAL OUT =         565.6229

            IN - OUT =       2.8822E-09              IN - OUT =      -5.8446E-10

 PERCENT DISCREPANCY =           0.00     PERCENT DISCREPANCY =          -0.00




         TIME SUMMARY AT END OF TIME STEP    1 IN STRESS PERIOD    7
                    SECONDS     MINUTES      HOURS       DAYS        YEARS
                    -----------------------------------------------------------
   TIME STEP LENGTH  86400.      1440.0      24.000      1.0000     2.73785E-03
 STRESS PERIOD TIME  86400.      1440.0      24.000      1.0000     2.73785E-03
         TOTAL TIME 6.04800E+05  10080.      168.00      7.0000     1.91650E-02


end timestep


start timestep kper="8" kstp="1" mode="normal"


 OUTPUT CONTROL FOR STRESS PERIOD 8 IS REPEATED USING SETTINGS FROM A PREVIOUS STRESS PERIOD.


 STRESS PERIOD 8 IS TRANSIENT

 UBDSV1 SAVING     FLOW-JA-FACE ON UNIT   1016 AT TIME STEP      1, STRESS PERIOD      8
 UBDSV06 SAVING              RIV IN MODEL GWF_1            PACKAGE GWF_1           CONNECTED TO MODEL GWF_1            PACKAGE RIV-1            ON UNIT   1016 AT TIME STEP      1, STRESS PERIOD      8
 UBDSV06 SAVING              RCH IN MODEL GWF_1            PACKAGE GWF_1           CONNECTED TO MODEL GWF_1            PACKAGE RCH_MSW          ON UNIT   1016 AT TIME STEP      1, STRESS PERIOD      8

 HEAD WILL BE SAVED ON UNIT 1017 AT END OF TIME STEP    1, STRESS PERIOD    8


  VOLUME BUDGET FOR ENTIRE MODEL AT END OF TIME STEP    1, STRESS PERIOD   8
  ---------------------------------------------------------------------------------------------------

     CUMULATIVE VOLUME      L**3       RATES FOR THIS TIME STEP      L**3/T          PACKAGE NAME    
     ------------------                 ------------------------                     ----------------

           IN:                                      IN:
           ---                                      ---
              STO-SS =           0.0000                STO-SS =           0.0000     STORAGE                          
                 RIV =           0.0000                   RIV =           0.0000     RIV-1                            
                 RCH =        7825.3239                   RCH =         503.2719     RCH_MSW                          

            TOTAL IN =        7825.3239              TOTAL IN =         503.2719

          OUT:                                     OUT:
          ----                                     ----
              STO-SS =        7825.3239                STO-SS =         503.2719     STORAGE                          
                 RIV =           0.0000                   RIV =           0.0000     RIV-1                            
                 RCH =           0.0000                   RCH =           0.0000     RCH_MSW                          

           TOTAL OUT =        7825.3239             TOTAL OUT =         503.2719

            IN - OUT =       4.7576E-09              IN - OUT =       1.8755E-09

 PERCENT DISCREPANCY =           0.00     PERCENT DISCREPANCY =           0.00




         TIME SUMMARY AT END OF TIME STEP    1 IN STRESS PERIOD    8
                    SECONDS     MINUTES      HOURS       DAYS        YEARS
                    -----------------------------------------------------------
   TIME STEP LENGTH  86400.      1440.0      24.000      1.0000     2.73785E-03
 STRESS PERIOD TIME  86400.      1440.0      24.000      1.0000     2.73785E-03
         TOTAL TIME 6.91200E+05  11520.      192.00      8.0000     2.19028E-02


end timestep


start timestep kper="9" kstp="1" mode="normal"


 OUTPUT CONTROL FOR STRESS PERIOD 9 IS REPEATED USING SETTINGS FROM A PREVIOUS STRESS PERIOD.


 STRESS PERIOD 9 IS TRANSIENT

 UBDSV1 SAVING     FLOW-JA-FACE ON UNIT   1016 AT TIME STEP      1, STRESS PERIOD      9
 UBDSV06 SAVING              RIV IN MODEL GWF_1            PACKAGE GWF_1           CONNECTED TO MODEL GWF_1            PACKAGE RIV-1            ON UNIT   1016 AT TIME STEP      1, STRESS PERIOD      9
 UBDSV06 SAVING              RCH IN MODEL GWF_1            PACKAGE GWF_1           CONNECTED TO MODEL GWF_1            PACKAGE RCH_MSW          ON UNIT   1016 AT TIME STEP      1, STRESS PERIOD      9

 HEAD WILL BE SAVED ON UNIT 1017 AT END OF TIME STEP    1, STRESS PERIOD    9


  VOLUME BUDGET FOR ENTIRE MODEL AT END OF TIME STEP    1, STRESS PERIOD   9
  ---------------------------------------------------------------------------------------------------

     CUMULATIVE VOLUME      L**3       RATES FOR THIS TIME STEP      L**3/T          PACKAGE NAME    
     ------------------                 ------------------------                     ----------------

           IN:                                      IN:
           ---                                      ---
              STO-SS =           0.0000                STO-SS =           0.0000     STORAGE                          
                 RIV =           0.0000                   RIV =           0.0000     RIV-1                            
                 RCH =        8277.4798                   RCH =         452.1559     RCH_MSW                          

            TOTAL IN =        8277.4798              TOTAL IN =         452.1559

          OUT:                                     OUT:
          ----                                     ----
              STO-SS =        8277.4798                STO-SS =         452.1559     STORAGE                          
                 RIV =           0.0000                   RIV =           0.0000     RIV-1                            
                 RCH =           0.0000                   RCH =           0.0000     RCH_MSW                          

           TOTAL OUT =        8277.4798             TOTAL OUT =         452.1559

            IN - OUT =       6.9449E-09              IN - OUT =       2.1864E-09

 PERCENT DISCREPANCY =           0.00     PERCENT DISCREPANCY =           0.00




         TIME SUMMARY AT END OF TIME STEP    1 IN STRESS PERIOD    9
                    SECONDS     MINUTES      HOURS       DAYS        YEARS
                    -----------------------------------------------------------
   TIME STEP LENGTH  86400.      1440.0      24.000      1.0000     2.73785E-03
 STRESS PERIOD TIME  86400.      1440.0      24.000      1.0000     2.73785E-03
         TOTAL TIME 7.77600E+05  12960.      216.00      9.0000     2.46407E-02


end timestep


start timestep kper="10" kstp="1" mode="normal"


 OUTPUT CONTROL FOR STRESS PERIOD 10 IS REPEATED USING SETTINGS FROM A PREVIOUS STRESS PERIOD.


 STRESS PERIOD 10 IS TRANSIENT

 UBDSV1 SAVING     FLOW-JA-FACE ON UNIT   1016 AT TIME STEP      1, STRESS PERIOD     10
 UBDSV06 SAVING              RIV IN MODEL GWF_1            PACKAGE GWF_1           CONNECTED TO MODEL GWF_1            PACKAGE RIV-1            ON UNIT   1016 AT TIME STEP      1, STRESS PERIOD     10
 UBDSV06 SAVING              RCH IN MODEL GWF_1            PACKAGE GWF_1           CONNECTED TO MODEL GWF_1            PACKAGE RCH_MSW          ON UNIT   1016 AT TIME STEP      1, STRESS PERIOD     10

 HEAD WILL BE SAVED ON UNIT 1017 AT END OF TIME STEP    1, STRESS PERIOD   10


  VOLUME BUDGET FOR ENTIRE MODEL AT END OF TIME STEP    1, STRESS PERIOD  10
  ---------------------------------------------------------------------------------------------------

     CUMULATIVE VOLUME      L**3       RATES FOR THIS TIME STEP      L**3/T          PACKAGE NAME    
     ------------------                 ------------------------                     ----------------

           IN:                                      IN:
           ---                                      ---
              STO-SS =           0.0000                STO-SS =           0.0000     STORAGE                          
                 RIV =           0.0000                   RIV =           0.0000     RIV-1                            
                 RCH =        8681.7030                   RCH =         404.2231     RCH_MSW                          

            TOTAL IN =        8681.7030              TOTAL IN =         404.2231

          OUT:                                     OUT:
          ----                                     ----
              STO-SS =        8681.7030                STO-SS =         404.2231     STORAGE                          
                 RIV =           0.0000                   RIV =           0.0000     RIV-1                            
                 RCH =           0.0000                   RCH =           0.0000     RCH_MSW                          

           TOTAL OUT =        8681.7030             TOTAL OUT =         404.2231

            IN - OUT =       6.5338E-09              IN - OUT =      -4.1075E-10

 PERCENT DISCREPANCY =           0.00     PERCENT DISCREPANCY =          -0.00




         TIME SUMMARY AT END OF TIME STEP    1 IN STRESS PERIOD   10
                    SECONDS     MINUTES      HOURS       DAYS        YEARS
                    -----------------------------------------------------------
   TIME STEP LENGTH  86400.      1440.0      24.000      1.0000     2.73785E-03
 STRESS PERIOD TIME  86400.      1440.0      24.000      1.0000     2.73785E-03
         TOTAL TIME 8.64000E+05  14400.      240.00      10.000     2.73785E-02


end timestep


start timestep kper="11" kstp="1" mode="normal"


 OUTPUT CONTROL FOR STRESS PERIOD 11 IS REPEATED USING SETTINGS FROM A PREVIOUS STRESS PERIOD.


 STRESS PERIOD 11 IS TRANSIENT

 UBDSV1 SAVING     FLOW-JA-FACE ON UNIT   1016 AT TIME STEP      1, STRESS PERIOD     11
 UBDSV06 SAVING              RIV IN MODEL GWF_1            PACKAGE GWF_1           CONNECTED TO MODEL GWF_1            PACKAGE RIV-1            ON UNIT   1016 AT TIME STEP      1, STRESS PERIOD     11
 UBDSV06 SAVING              RCH IN MODEL GWF_1            PACKAGE GWF_1           CONNECTED TO MODEL GWF_1            PACKAGE RCH_MSW          ON UNIT   1016 AT TIME STEP      1, STRESS PERIOD     11

 HEAD WILL BE SAVED ON UNIT 1017 AT END OF TIME STEP    1, STRESS PERIOD   11


  VOLUME BUDGET FOR ENTIRE MODEL AT END OF TIME STEP    1, STRESS PERIOD  11
  ---------------------------------------------------------------------------------------------------

     CUMULATIVE VOLUME      L**3       RATES FOR THIS TIME STEP      L**3/T          PACKAGE NAME    
     ------------------                 ------------------------                     ----------------

           IN:                                      IN:
           ---                                      ---
              STO-SS =           0.0000                STO-SS =           0.0000     STORAGE                          
                 RIV =           0.0000                   RIV =           0.0000     RIV-1                            
                 RCH =        9044.3868                   RCH =         362.6839     RCH_MSW                          

            TOTAL IN =        9044.3868              TOTAL IN =         362.6839

          OUT:                                     OUT:
          ----                                     ----
              STO-SS =        9044.3868                STO-SS =         362.6839     STORAGE                          
                 RIV =           0.0000                   RIV =           0.0000     RIV-1                            
                 RCH =           0.0000                   RCH =           0.0000     RCH_MSW                          

           TOTAL OUT =        9044.3868             TOTAL OUT =         362.6839

            IN - OUT =       5.7571E-09              IN - OUT =      -7.7659E-10

 PERCENT DISCREPANCY =           0.00     PERCENT DISCREPANCY =          -0.00




         TIME SUMMARY AT END OF TIME STEP    1 IN STRESS PERIOD   11
                    SECONDS     MINUTES      HOURS       DAYS        YEARS
                    -----------------------------------------------------------
   TIME STEP LENGTH  86400.      1440.0      24.000      1.0000     2.73785E-03
 STRESS PERIOD TIME  86400.      1440.0      24.000      1.0000     2.73785E-03
         TOTAL TIME 9.50400E+05  15840.      264.00      11.000     3.01164E-02


end timestep


start timestep kper="12" kstp="1" mode="normal"


 OUTPUT CONTROL FOR STRESS PERIOD 12 IS REPEATED USING SETTINGS FROM A PREVIOUS STRESS PERIOD.


 STRESS PERIOD 12 IS TRANSIENT

 UBDSV1 SAVING     FLOW-JA-FACE ON UNIT   1016 AT TIME STEP      1, STRESS PERIOD     12
 UBDSV06 SAVING              RIV IN MODEL GWF_1            PACKAGE GWF_1           CONNECTED TO MODEL GWF_1            PACKAGE RIV-1            ON UNIT   1016 AT TIME STEP      1, STRESS PERIOD     12
 UBDSV06 SAVING              RCH IN MODEL GWF_1            PACKAGE GWF_1           CONNECTED TO MODEL GWF_1            PACKAGE RCH_MSW          ON UNIT   1016 AT TIME STEP      1, STRESS PERIOD     12

 HEAD WILL BE SAVED ON UNIT 1017 AT END OF TIME STEP    1, STRESS PERIOD   12


  VOLUME BUDGET FOR ENTIRE MODEL AT END OF TIME STEP    1, STRESS PERIOD  12
  ---------------------------------------------------------------------------------------------------

     CUMULATIVE VOLUME      L**3       RATES FOR THIS TIME STEP      L**3/T          PACKAGE NAME    
     ------------------                 ------------------------                     ----------------

           IN:                                      IN:
           ---                                      ---
              STO-SS =           0.0000                STO-SS =           0.0000     STORAGE                          
                 RIV =           0.0000                   RIV =           0.0000     RIV-1                            
                 RCH =        9375.2128                   RCH =         330.8259     RCH_MSW                          

            TOTAL IN =        9375.2128              TOTAL IN =         330.8259

          OUT:                                     OUT:
          ----                                     ----
              STO-SS =        9375.2128                STO-SS =         330.8259     STORAGE                          
                 RIV =           0.0000                   RIV =           0.0000     RIV-1                            
                 RCH =           0.0000                   RCH =           0.0000     RCH_MSW                          

           TOTAL OUT =        9375.2128             TOTAL OUT =         330.8259

            IN - OUT =       5.8299E-09              IN - OUT =       7.2134E-11

 PERCENT DISCREPANCY =           0.00     PERCENT DISCREPANCY =           0.00




         TIME SUMMARY AT END OF TIME STEP    1 IN STRESS PERIOD   12
                    SECONDS     MINUTES      HOURS       DAYS        YEARS
                    -----------------------------------------------------------
   TIME STEP LENGTH  86400.      1440.0      24.000      1.0000     2.73785E-03
 STRESS PERIOD TIME  86400.      1440.0      24.000      1.0000     2.73785E-03
         TOTAL TIME 1.03680E+06  17280.      288.00      12.000     3.28542E-02


end timestep


start timestep kper="13" kstp="1" mode="normal"


 OUTPUT CONTROL FOR STRESS PERIOD 13 IS REPEATED USING SETTINGS FROM A PREVIOUS STRESS PERIOD.


 STRESS PERIOD 13 IS TRANSIENT

 UBDSV1 SAVING     FLOW-JA-FACE ON UNIT   1016 AT TIME STEP      1, STRESS PERIOD     13
 UBDSV06 SAVING              RIV IN MODEL GWF_1            PACKAGE GWF_1           CONNECTED TO MODEL GWF_1            PACKAGE RIV-1            ON UNIT   1016 AT TIME STEP      1, STRESS PERIOD     13
 UBDSV06 SAVING              RCH IN MODEL GWF_1            PACKAGE GWF_1           CONNECTED TO MODEL GWF_1            PACKAGE RCH_MSW          ON UNIT   1016 AT TIME STEP      1, STRESS PERIOD     13

 HEAD WILL BE SAVED ON UNIT 1017 AT END OF TIME STEP    1, STRESS PERIOD   13


  VOLUME BUDGET FOR ENTIRE MODEL AT END OF TIME STEP    1, STRESS PERIOD  13
  ---------------------------------------------------------------------------------------------------

     CUMULATIVE VOLUME      L**3       RATES FOR THIS TIME STEP      L**3/T          PACKAGE NAME    
     ------------------                 ------------------------                     ----------------

           IN:                                      IN:
           ---                                      ---
              STO-SS =           0.0000                STO-SS =           0.0000     STORAGE                          
                 RIV =           0.0000                   RIV =           0.0000     RIV-1                            
                 RCH =        9680.3679                   RCH =         305.1551     RCH_MSW                          

            TOTAL IN =        9680.3679              TOTAL IN =         305.1551

          OUT:                                     OUT:
          ----                                     ----
              STO-SS =        9680.3679                STO-SS =         305.1551     STORAGE                          
                 RIV =           0.0000                   RIV =           0.0000     RIV-1                            
                 RCH =           0.0000                   RCH =           0.0000     RCH_MSW                          

           TOTAL OUT =        9680.3679             TOTAL OUT =         305.1551

            IN - OUT =       5.7098E-09              IN - OUT =      -1.1983E-10

 PERCENT DISCREPANCY =           0.00     PERCENT DISCREPANCY =          -0.00




         TIME SUMMARY AT END OF TIME STEP    1 IN STRESS PERIOD   13
                    SECONDS     MINUTES      HOURS       DAYS        YEARS
                    -----------------------------------------------------------
   TIME STEP LENGTH  86400.      1440.0      24.000      1.0000     2.73785E-03
 STRESS PERIOD TIME  86400.      1440.0      24.000      1.0000     2.73785E-03
         TOTAL TIME 1.12320E+06  18720.      312.00      13.000     3.55921E-02


end timestep


start timestep kper="14" kstp="1" mode="normal"


 OUTPUT CONTROL FOR STRESS PERIOD 14 IS REPEATED USING SETTINGS FROM A PREVIOUS STRESS PERIOD.


 STRESS PERIOD 14 IS TRANSIENT

 UBDSV1 SAVING     FLOW-JA-FACE ON UNIT   1016 AT TIME STEP      1, STRESS PERIOD     14
 UBDSV06 SAVING              RIV IN MODEL GWF_1            PACKAGE GWF_1           CONNECTED TO MODEL GWF_1            PACKAGE RIV-1            ON UNIT   1016 AT TIME STEP      1, STRESS PERIOD     14
 UBDSV06 SAVING              RCH IN MODEL GWF_1            PACKAGE GWF_1           CONNECTED TO MODEL GWF_1            PACKAGE RCH_MSW          ON UNIT   1016 AT TIME STEP      1, STRESS PERIOD     14

 HEAD WILL BE SAVED ON UNIT 1017 AT END OF TIME STEP    1, STRESS PERIOD   14


  VOLUME BUDGET FOR ENTIRE MODEL AT END OF TIME STEP    1, STRESS PERIOD  14
  ---------------------------------------------------------------------------------------------------

     CUMULATIVE VOLUME      L**3       RATES FOR THIS TIME STEP      L**3/T          PACKAGE NAME    
     ------------------                 ------------------------                     ----------------

           IN:                                      IN:
           ---                                      ---
              STO-SS =           0.0000                STO-SS =           0.0000     STORAGE                          
                 RIV =           0.0000                   RIV =           0.0000     RIV-1                            
                 RCH =        9961.1789                   RCH =         280.8111     RCH_MSW                          

            TOTAL IN =        9961.1789              TOTAL IN =         280.8111

          OUT:                                     OUT:
          ----                                     ----
              STO-SS =        9961.1789                STO-SS =         280.8111     STORAGE                          
                 RIV =           0.0000                   RIV =           0.0000     RIV-1                            
                 RCH =           0.0000                   RCH =           0.0000     RCH_MSW                          

           TOTAL OUT =        9961.1789             TOTAL OUT =         280.8111

            IN - OUT =       6.6557E-09              IN - OUT =       9.4502E-10

 PERCENT DISCREPANCY =           0.00     PERCENT DISCREPANCY =           0.00




         TIME SUMMARY AT END OF TIME STEP    1 IN STRESS PERIOD   14
                    SECONDS     MINUTES      HOURS       DAYS        YEARS
                    -----------------------------------------------------------
   TIME STEP LENGTH  86400.      1440.0      24.000      1.0000     2.73785E-03
 STRESS PERIOD TIME  86400.      1440.0      24.000      1.0000     2.73785E-03
         TOTAL TIME 1.20960E+06  20160.      336.00      14.000     3.83299E-02


end timestep


start timestep kper="15" kstp="1" mode="normal"


 OUTPUT CONTROL FOR STRESS PERIOD 15 IS REPEATED USING SETTINGS FROM A PREVIOUS STRESS PERIOD.


 STRESS PERIOD 15 IS TRANSIENT

 UBDSV1 SAVING     FLOW-JA-FACE ON UNIT   1016 AT TIME STEP      1, STRESS PERIOD     15
 UBDSV06 SAVING              RIV IN MODEL GWF_1            PACKAGE GWF_1           CONNECTED TO MODEL GWF_1            PACKAGE RIV-1            ON UNIT   1016 AT TIME STEP      1, STRESS PERIOD     15
 UBDSV06 SAVING              RCH IN MODEL GWF_1            PACKAGE GWF_1           CONNECTED TO MODEL GWF_1            PACKAGE RCH_MSW          ON UNIT   1016 AT TIME STEP      1, STRESS PERIOD     15

 HEAD WILL BE SAVED ON UNIT 1017 AT END OF TIME STEP    1, STRESS PERIOD   15


  VOLUME BUDGET FOR ENTIRE MODEL AT END OF TIME STEP    1, STRESS PERIOD  15
  ---------------------------------------------------------------------------------------------------

     CUMULATIVE VOLUME      L**3       RATES FOR THIS TIME STEP      L**3/T          PACKAGE NAME    
     ------------------                 ------------------------                     ----------------

           IN:                                      IN:
           ---                                      ---
              STO-SS =           0.0000                STO-SS =           0.0000     STORAGE                          
                 RIV =           0.0000                   RIV =           0.0000     RIV-1                            
                 RCH =       10219.7705                   RCH =         258.5916     RCH_MSW                          

            TOTAL IN =       10219.7705              TOTAL IN =         258.5916

          OUT:                                     OUT:
          ----                                     ----
              STO-SS =       10219.7705                STO-SS =         258.5916     STORAGE                          
                 RIV =           0.0000                   RIV =           0.0000     RIV-1                            
                 RCH =           0.0000                   RCH =           0.0000     RCH_MSW                          

           TOTAL OUT =       10219.7705             TOTAL OUT =         258.5916

            IN - OUT =       6.8303E-09              IN - OUT =       1.7440E-10

 PERCENT DISCREPANCY =           0.00     PERCENT DISCREPANCY =           0.00




         TIME SUMMARY AT END OF TIME STEP    1 IN STRESS PERIOD   15
                    SECONDS     MINUTES      HOURS       DAYS        YEARS
                    -----------------------------------------------------------
   TIME STEP LENGTH  86400.      1440.0      24.000      1.0000     2.73785E-03
 STRESS PERIOD TIME  86400.      1440.0      24.000      1.0000     2.73785E-03
         TOTAL TIME 1.29600E+06  21600.      360.00      15.000     4.10678E-02


end timestep


start timestep kper="16" kstp="1" mode="normal"


 OUTPUT CONTROL FOR STRESS PERIOD 16 IS REPEATED USING SETTINGS FROM A PREVIOUS STRESS PERIOD.


 STRESS PERIOD 16 IS TRANSIENT

 UBDSV1 SAVING     FLOW-JA-FACE ON UNIT   1016 AT TIME STEP      1, STRESS PERIOD     16
 UBDSV06 SAVING              RIV IN MODEL GWF_1            PACKAGE GWF_1           CONNECTED TO MODEL GWF_1            PACKAGE RIV-1            ON UNIT   1016 AT TIME STEP      1, STRESS PERIOD     16
 UBDSV06 SAVING              RCH IN MODEL GWF_1            PACKAGE GWF_1           CONNECTED TO MODEL GWF_1            PACKAGE RCH_MSW          ON UNIT   1016 AT TIME STEP      1, STRESS PERIOD     16

 HEAD WILL BE SAVED ON UNIT 1017 AT END OF TIME STEP    1, STRESS PERIOD   16


  VOLUME BUDGET FOR ENTIRE MODEL AT END OF TIME STEP    1, STRESS PERIOD  16
  ---------------------------------------------------------------------------------------------------

     CUMULATIVE VOLUME      L**3       RATES FOR THIS TIME STEP      L**3/T          PACKAGE NAME    
     ------------------                 ------------------------                     ----------------

           IN:                                      IN:
           ---                                      ---
              STO-SS =           0.0000                STO-SS =           0.0000     STORAGE                          
                 RIV =           0.0000                   RIV =           0.0000     RIV-1                            
                 RCH =       10458.8362                   RCH =         239.0657     RCH_MSW                          

            TOTAL IN =       10458.8362              TOTAL IN =         239.0657

          OUT:                                     OUT:
          ----                                     ----
              STO-SS =       10458.8362                STO-SS =         239.0657     STORAGE                          
                 RIV =           0.0000                   RIV =           0.0000     RIV-1                            
                 RCH =           0.0000                   RCH =           0.0000     RCH_MSW                          

           TOTAL OUT =       10458.8362             TOTAL OUT =         239.0657

            IN - OUT =       8.0872E-09              IN - OUT =       1.2562E-09

 PERCENT DISCREPANCY =           0.00     PERCENT DISCREPANCY =           0.00




         TIME SUMMARY AT END OF TIME STEP    1 IN STRESS PERIOD   16
                    SECONDS     MINUTES      HOURS       DAYS        YEARS
                    -----------------------------------------------------------
   TIME STEP LENGTH  86400.      1440.0      24.000      1.0000     2.73785E-03
 STRESS PERIOD TIME  86400.      1440.0      24.000      1.0000     2.73785E-03
         TOTAL TIME 1.38240E+06  23040.      384.00      16.000     4.38056E-02


end timestep


start timestep kper="17" kstp="1" mode="normal"


 OUTPUT CONTROL FOR STRESS PERIOD 17 IS REPEATED USING SETTINGS FROM A PREVIOUS STRESS PERIOD.


 STRESS PERIOD 17 IS TRANSIENT

 UBDSV1 SAVING     FLOW-JA-FACE ON UNIT   1016 AT TIME STEP      1, STRESS PERIOD     17
 UBDSV06 SAVING              RIV IN MODEL GWF_1            PACKAGE GWF_1           CONNECTED TO MODEL GWF_1            PACKAGE RIV-1            ON UNIT   1016 AT TIME STEP      1, STRESS PERIOD     17
 UBDSV06 SAVING              RCH IN MODEL GWF_1            PACKAGE GWF_1           CONNECTED TO MODEL GWF_1            PACKAGE RCH_MSW          ON UNIT   1016 AT TIME STEP      1, STRESS PERIOD     17

 HEAD WILL BE SAVED ON UNIT 1017 AT END OF TIME STEP    1, STRESS PERIOD   17


  VOLUME BUDGET FOR ENTIRE MODEL AT END OF TIME STEP    1, STRESS PERIOD  17
  ---------------------------------------------------------------------------------------------------

     CUMULATIVE VOLUME      L**3       RATES FOR THIS TIME STEP      L**3/T          PACKAGE NAME    
     ------------------                 ------------------------                     ----------------

           IN:                                      IN:
           ---                                      ---
              STO-SS =           0.0000                STO-SS =           0.0000     STORAGE                          
                 RIV =           0.0000                   RIV =           0.0000     RIV-1                            
                 RCH =       10679.4711                   RCH =         220.6350     RCH_MSW                          

            TOTAL IN =       10679.4711              TOTAL IN =         220.6350

          OUT:                                     OUT:
          ----                                     ----
              STO-SS =       10679.4711                STO-SS =         220.6350     STORAGE                          
                 RIV =           0.0000                   RIV =           0.0000     RIV-1                            
                 RCH =           0.0000                   RCH =           0.0000     RCH_MSW                          

           TOTAL OUT =       10679.4711             TOTAL OUT =         220.6350

            IN - OUT =       9.1113E-09              IN - OUT =       1.0249E-09

 PERCENT DISCREPANCY =           0.00     PERCENT DISCREPANCY =           0.00




         TIME SUMMARY AT END OF TIME STEP    1 IN STRESS PERIOD   17
                    SECONDS     MINUTES      HOURS       DAYS        YEARS
                    -----------------------------------------------------------
   TIME STEP LENGTH  86400.      1440.0      24.000      1.0000     2.73785E-03
 STRESS PERIOD TIME  86400.      1440.0      24.000      1.0000     2.73785E-03
         TOTAL TIME 1.46880E+06  24480.      408.00      17.000     4.65435E-02


end timestep


start timestep kper="18" kstp="1" mode="normal"


 OUTPUT CONTROL FOR STRESS PERIOD 18 IS REPEATED USING SETTINGS FROM A PREVIOUS STRESS PERIOD.


 STRESS PERIOD 18 IS TRANSIENT

 UBDSV1 SAVING     FLOW-JA-FACE ON UNIT   1016 AT TIME STEP      1, STRESS PERIOD     18
 UBDSV06 SAVING              RIV IN MODEL GWF_1            PACKAGE GWF_1           CONNECTED TO MODEL GWF_1            PACKAGE RIV-1            ON UNIT   1016 AT TIME STEP      1, STRESS PERIOD     18
 UBDSV06 SAVING              RCH IN MODEL GWF_1            PACKAGE GWF_1           CONNECTED TO MODEL GWF_1            PACKAGE RCH_MSW          ON UNIT   1016 AT TIME STEP      1, STRESS PERIOD     18

 HEAD WILL BE SAVED ON UNIT 1017 AT END OF TIME STEP    1, STRESS PERIOD   18


  VOLUME BUDGET FOR ENTIRE MODEL AT END OF TIME STEP    1, STRESS PERIOD  18
  ---------------------------------------------------------------------------------------------------

     CUMULATIVE VOLUME      L**3       RATES FOR THIS TIME STEP      L**3/T          PACKAGE NAME    
     ------------------                 ------------------------                     ----------------

           IN:                                      IN:
           ---                                      ---
              STO-SS =           0.0000                STO-SS =           0.0000     STORAGE                          
                 RIV =           0.0000                   RIV =           0.0000     RIV-1                            
                 RCH =       10885.2976                   RCH =         205.8265     RCH_MSW                          

            TOTAL IN =       10885.2976              TOTAL IN =         205.8265

          OUT:                                     OUT:
          ----                                     ----
              STO-SS =       10885.2976                STO-SS =         205.8265     STORAGE                          
                 RIV =           0.0000                   RIV =           0.0000     RIV-1                            
                 RCH =           0.0000                   RCH =           0.0000     RCH_MSW                          

           TOTAL OUT =       10885.2976             TOTAL OUT =         205.8265

            IN - OUT =       1.0712E-08              IN - OUT =       1.5999E-09

 PERCENT DISCREPANCY =           0.00     PERCENT DISCREPANCY =           0.00




         TIME SUMMARY AT END OF TIME STEP    1 IN STRESS PERIOD   18
                    SECONDS     MINUTES      HOURS       DAYS        YEARS
                    -----------------------------------------------------------
   TIME STEP LENGTH  86400.      1440.0      24.000      1.0000     2.73785E-03
 STRESS PERIOD TIME  86400.      1440.0      24.000      1.0000     2.73785E-03
         TOTAL TIME 1.55520E+06  25920.      432.00      18.000     4.92813E-02


end timestep


start timestep kper="19" kstp="1" mode="normal"


 OUTPUT CONTROL FOR STRESS PERIOD 19 IS REPEATED USING SETTINGS FROM A PREVIOUS STRESS PERIOD.


 STRESS PERIOD 19 IS TRANSIENT

 UBDSV1 SAVING     FLOW-JA-FACE ON UNIT   1016 AT TIME STEP      1, STRESS PERIOD     19
 UBDSV06 SAVING              RIV IN MODEL GWF_1            PACKAGE GWF_1           CONNECTED TO MODEL GWF_1            PACKAGE RIV-1            ON UNIT   1016 AT TIME STEP      1, STRESS PERIOD     19
 UBDSV06 SAVING              RCH IN MODEL GWF_1            PACKAGE GWF_1           CONNECTED TO MODEL GWF_1            PACKAGE RCH_MSW          ON UNIT   1016 AT TIME STEP      1, STRESS PERIOD     19

 HEAD WILL BE SAVED ON UNIT 1017 AT END OF TIME STEP    1, STRESS PERIOD   19


  VOLUME BUDGET FOR ENTIRE MODEL AT END OF TIME STEP    1, STRESS PERIOD  19
  ---------------------------------------------------------------------------------------------------

     CUMULATIVE VOLUME      L**3       RATES FOR THIS TIME STEP      L**3/T          PACKAGE NAME    
     ------------------                 ------------------------                     ----------------

           IN:                                      IN:
           ---                                      ---
              STO-SS =           0.0000                STO-SS =           0.0000     STORAGE                          
                 RIV =           0.0000                   RIV =           0.0000     RIV-1                            
                 RCH =       11082.8896                   RCH =         197.5919     RCH_MSW                          

            TOTAL IN =       11082.8896              TOTAL IN =         197.5919

          OUT:                                     OUT:
          ----                                     ----
              STO-SS =       11082.8896                STO-SS =         197.5919     STORAGE                          
                 RIV =           0.0000                   RIV =           0.0000     RIV-1                            
                 RCH =           0.0000                   RCH =           0.0000     RCH_MSW                          

           TOTAL OUT =       11082.8896             TOTAL OUT =         197.5919

            IN - OUT =       9.0076E-09              IN - OUT =      -1.7045E-09

 PERCENT DISCREPANCY =           0.00     PERCENT DISCREPANCY =          -0.00




         TIME SUMMARY AT END OF TIME STEP    1 IN STRESS PERIOD   19
                    SECONDS     MINUTES      HOURS       DAYS        YEARS
                    -----------------------------------------------------------
   TIME STEP LENGTH  86400.      1440.0      24.000      1.0000     2.73785E-03
 STRESS PERIOD TIME  86400.      1440.0      24.000      1.0000     2.73785E-03
         TOTAL TIME 1.64160E+06  27360.      456.00      19.000     5.20192E-02


end timestep


start timestep kper="20" kstp="1" mode="normal"


 OUTPUT CONTROL FOR STRESS PERIOD 20 IS REPEATED USING SETTINGS FROM A PREVIOUS STRESS PERIOD.


 STRESS PERIOD 20 IS TRANSIENT

 UBDSV1 SAVING     FLOW-JA-FACE ON UNIT   1016 AT TIME STEP      1, STRESS PERIOD     20
 UBDSV06 SAVING              RIV IN MODEL GWF_1            PACKAGE GWF_1           CONNECTED TO MODEL GWF_1            PACKAGE RIV-1            ON UNIT   1016 AT TIME STEP      1, STRESS PERIOD     20
 UBDSV06 SAVING              RCH IN MODEL GWF_1            PACKAGE GWF_1           CONNECTED TO MODEL GWF_1            PACKAGE RCH_MSW          ON UNIT   1016 AT TIME STEP      1, STRESS PERIOD     20

 HEAD WILL BE SAVED ON UNIT 1017 AT END OF TIME STEP    1, STRESS PERIOD   20


  VOLUME BUDGET FOR ENTIRE MODEL AT END OF TIME STEP    1, STRESS PERIOD  20
  ---------------------------------------------------------------------------------------------------

     CUMULATIVE VOLUME      L**3       RATES FOR THIS TIME STEP      L**3/T          PACKAGE NAME    
     ------------------                 ------------------------                     ----------------

           IN:                                      IN:
           ---                                      ---
              STO-SS =           0.0000                STO-SS =           0.0000     STORAGE                          
                 RIV =           0.0000                   RIV =           0.0000     RIV-1                            
                 RCH =       11271.3828                   RCH =         188.4933     RCH_MSW                          

            TOTAL IN =       11271.3828              TOTAL IN =         188.4933

          OUT:                                     OUT:
          ----                                     ----
              STO-SS =       11271.3828                STO-SS =         188.4933     STORAGE                          
                 RIV =           0.0000                   RIV =           0.0000     RIV-1                            
                 RCH =           0.0000                   RCH =           0.0000     RCH_MSW                          

           TOTAL OUT =       11271.3828             TOTAL OUT =         188.4933

            IN - OUT =       7.5470E-09              IN - OUT =      -1.4604E-09

 PERCENT DISCREPANCY =           0.00     PERCENT DISCREPANCY =          -0.00




         TIME SUMMARY AT END OF TIME STEP    1 IN STRESS PERIOD   20
                    SECONDS     MINUTES      HOURS       DAYS        YEARS
                    -----------------------------------------------------------
   TIME STEP LENGTH  86400.      1440.0      24.000      1.0000     2.73785E-03
 STRESS PERIOD TIME  86400.      1440.0      24.000      1.0000     2.73785E-03
         TOTAL TIME 1.72800E+06  28800.      480.00      20.000     5.47570E-02


end timestep


start timestep kper="21" kstp="1" mode="normal"


 OUTPUT CONTROL FOR STRESS PERIOD 21 IS REPEATED USING SETTINGS FROM A PREVIOUS STRESS PERIOD.


 STRESS PERIOD 21 IS TRANSIENT

 UBDSV1 SAVING     FLOW-JA-FACE ON UNIT   1016 AT TIME STEP      1, STRESS PERIOD     21
 UBDSV06 SAVING              RIV IN MODEL GWF_1            PACKAGE GWF_1           CONNECTED TO MODEL GWF_1            PACKAGE RIV-1            ON UNIT   1016 AT TIME STEP      1, STRESS PERIOD     21
 UBDSV06 SAVING              RCH IN MODEL GWF_1            PACKAGE GWF_1           CONNECTED TO MODEL GWF_1            PACKAGE RCH_MSW          ON UNIT   1016 AT TIME STEP      1, STRESS PERIOD     21

 HEAD WILL BE SAVED ON UNIT 1017 AT END OF TIME STEP    1, STRESS PERIOD   21


  VOLUME BUDGET FOR ENTIRE MODEL AT END OF TIME STEP    1, STRESS PERIOD  21
  ---------------------------------------------------------------------------------------------------

     CUMULATIVE VOLUME      L**3       RATES FOR THIS TIME STEP      L**3/T          PACKAGE NAME    
     ------------------                 ------------------------                     ----------------

           IN:                                      IN:
           ---                                      ---
              STO-SS =           0.0000                STO-SS =           0.0000     STORAGE                          
                 RIV =           0.0000                   RIV =           0.0000     RIV-1                            
                 RCH =       11451.2438                   RCH =         179.8610     RCH_MSW                          

            TOTAL IN =       11451.2438              TOTAL IN =         179.8610

          OUT:                                     OUT:
          ----                                     ----
              STO-SS =       11451.2438                STO-SS =         179.8610     STORAGE                          
                 RIV =           0.0000                   RIV =           0.0000     RIV-1                            
                 RCH =           0.0000                   RCH =           0.0000     RCH_MSW                          

           TOTAL OUT =       11451.2438             TOTAL OUT =         179.8610

            IN - OUT =       8.7275E-09              IN - OUT =       1.1805E-09

 PERCENT DISCREPANCY =           0.00     PERCENT DISCREPANCY =           0.00




         TIME SUMMARY AT END OF TIME STEP    1 IN STRESS PERIOD   21
                    SECONDS     MINUTES      HOURS       DAYS        YEARS
                    -----------------------------------------------------------
   TIME STEP LENGTH  86400.      1440.0      24.000      1.0000     2.73785E-03
 STRESS PERIOD TIME  86400.      1440.0      24.000      1.0000     2.73785E-03
         TOTAL TIME 1.81440E+06  30240.      504.00      21.000     5.74949E-02


end timestep


start timestep kper="22" kstp="1" mode="normal"


 OUTPUT CONTROL FOR STRESS PERIOD 22 IS REPEATED USING SETTINGS FROM A PREVIOUS STRESS PERIOD.


 STRESS PERIOD 22 IS TRANSIENT

 UBDSV1 SAVING     FLOW-JA-FACE ON UNIT   1016 AT TIME STEP      1, STRESS PERIOD     22
 UBDSV06 SAVING              RIV IN MODEL GWF_1            PACKAGE GWF_1           CONNECTED TO MODEL GWF_1            PACKAGE RIV-1            ON UNIT   1016 AT TIME STEP      1, STRESS PERIOD     22
 UBDSV06 SAVING              RCH IN MODEL GWF_1            PACKAGE GWF_1           CONNECTED TO MODEL GWF_1            PACKAGE RCH_MSW          ON UNIT   1016 AT TIME STEP      1, STRESS PERIOD     22

 HEAD WILL BE SAVED ON UNIT 1017 AT END OF TIME STEP    1, STRESS PERIOD   22


  VOLUME BUDGET FOR ENTIRE MODEL AT END OF TIME STEP    1, STRESS PERIOD  22
  ---------------------------------------------------------------------------------------------------

     CUMULATIVE VOLUME      L**3       RATES FOR THIS TIME STEP      L**3/T          PACKAGE NAME    
     ------------------                 ------------------------                     ----------------

           IN:                                      IN:
           ---                                      ---
              STO-SS =           0.0000                STO-SS =           0.0000     STORAGE                          
                 RIV =           0.0000                   RIV =           0.0000     RIV-1                            
                 RCH =       11623.6688                   RCH =         172.4249     RCH_MSW                          

            TOTAL IN =       11623.6688              TOTAL IN =         172.4249

          OUT:                                     OUT:
          ----                                     ----
              STO-SS =       11623.6688                STO-SS =         172.4249     STORAGE                          
                 RIV =           0.0000                   RIV =           0.0000     RIV-1                            
                 RCH =           0.0000                   RCH =           0.0000     RCH_MSW                          

           TOTAL OUT =       11623.6688             TOTAL OUT =         172.4249

            IN - OUT =       8.2891E-09              IN - OUT =      -4.3923E-10

 PERCENT DISCREPANCY =           0.00     PERCENT DISCREPANCY =          -0.00




         TIME SUMMARY AT END OF TIME STEP    1 IN STRESS PERIOD   22
                    SECONDS     MINUTES      HOURS       DAYS        YEARS
                    -----------------------------------------------------------
   TIME STEP LENGTH  86400.      1440.0      24.000      1.0000     2.73785E-03
 STRESS PERIOD TIME  86400.      1440.0      24.000      1.0000     2.73785E-03
         TOTAL TIME 1.90080E+06  31680.      528.00      22.000     6.02327E-02


end timestep


start timestep kper="23" kstp="1" mode="normal"


 OUTPUT CONTROL FOR STRESS PERIOD 23 IS REPEATED USING SETTINGS FROM A PREVIOUS STRESS PERIOD.


 STRESS PERIOD 23 IS TRANSIENT

 UBDSV1 SAVING     FLOW-JA-FACE ON UNIT   1016 AT TIME STEP      1, STRESS PERIOD     23
 UBDSV06 SAVING              RIV IN MODEL GWF_1            PACKAGE GWF_1           CONNECTED TO MODEL GWF_1            PACKAGE RIV-1            ON UNIT   1016 AT TIME STEP      1, STRESS PERIOD     23
 UBDSV06 SAVING              RCH IN MODEL GWF_1            PACKAGE GWF_1           CONNECTED TO MODEL GWF_1            PACKAGE RCH_MSW          ON UNIT   1016 AT TIME STEP      1, STRESS PERIOD     23

 HEAD WILL BE SAVED ON UNIT 1017 AT END OF TIME STEP    1, STRESS PERIOD   23


  VOLUME BUDGET FOR ENTIRE MODEL AT END OF TIME STEP    1, STRESS PERIOD  23
  ---------------------------------------------------------------------------------------------------

     CUMULATIVE VOLUME      L**3       RATES FOR THIS TIME STEP      L**3/T          PACKAGE NAME    
     ------------------                 ------------------------                     ----------------

           IN:                                      IN:
           ---                                      ---
              STO-SS =           0.0000                STO-SS =           0.0000     STORAGE                          
                 RIV =           0.0000                   RIV =           0.0000     RIV-1                            
                 RCH =       11799.0028                   RCH =         175.3341     RCH_MSW                          

            TOTAL IN =       11799.0028              TOTAL IN =         175.3341

          OUT:                                     OUT:
          ----                                     ----
              STO-SS =       11799.0028                STO-SS =         175.3341     STORAGE                          
                 RIV =           0.0000                   RIV =           0.0000     RIV-1                            
                 RCH =           0.0000                   RCH =           0.0000     RCH_MSW                          

           TOTAL OUT =       11799.0028             TOTAL OUT =         175.3341

            IN - OUT =       8.2764E-09              IN - OUT =      -1.3102E-11

 PERCENT DISCREPANCY =           0.00     PERCENT DISCREPANCY =          -0.00




         TIME SUMMARY AT END OF TIME STEP    1 IN STRESS PERIOD   23
                    SECONDS     MINUTES      HOURS       DAYS        YEARS
                    -----------------------------------------------------------
   TIME STEP LENGTH  86400.      1440.0      24.000      1.0000     2.73785E-03
 STRESS PERIOD TIME  86400.      1440.0      24.000      1.0000     2.73785E-03
         TOTAL TIME 1.98720E+06  33120.      552.00      23.000     6.29706E-02


end timestep


start timestep kper="24" kstp="1" mode="normal"


 OUTPUT CONTROL FOR STRESS PERIOD 24 IS REPEATED USING SETTINGS FROM A PREVIOUS STRESS PERIOD.


 STRESS PERIOD 24 IS TRANSIENT

 UBDSV1 SAVING     FLOW-JA-FACE ON UNIT   1016 AT TIME STEP      1, STRESS PERIOD     24
 UBDSV06 SAVING              RIV IN MODEL GWF_1            PACKAGE GWF_1           CONNECTED TO MODEL GWF_1            PACKAGE RIV-1            ON UNIT   1016 AT TIME STEP      1, STRESS PERIOD     24
 UBDSV06 SAVING              RCH IN MODEL GWF_1            PACKAGE GWF_1           CONNECTED TO MODEL GWF_1            PACKAGE RCH_MSW          ON UNIT   1016 AT TIME STEP      1, STRESS PERIOD     24

 HEAD WILL BE SAVED ON UNIT 1017 AT END OF TIME STEP    1, STRESS PERIOD   24


  VOLUME BUDGET FOR ENTIRE MODEL AT END OF TIME STEP    1, STRESS PERIOD  24
  ---------------------------------------------------------------------------------------------------

     CUMULATIVE VOLUME      L**3       RATES FOR THIS TIME STEP      L**3/T          PACKAGE NAME    
     ------------------                 ------------------------                     ----------------

           IN:                                      IN:
           ---                                      ---
              STO-SS =           0.0000                STO-SS =           0.0000     STORAGE                          
                 RIV =           0.0000                   RIV =           0.0000     RIV-1                            
                 RCH =       11979.2797                   RCH =         180.2769     RCH_MSW                          

            TOTAL IN =       11979.2797              TOTAL IN =         180.2769

          OUT:                                     OUT:
          ----                                     ----
              STO-SS =       11979.2797                STO-SS =         180.2769     STORAGE                          
                 RIV =           0.0000                   RIV =           0.0000     RIV-1                            
                 RCH =           0.0000                   RCH =           0.0000     RCH_MSW                          

           TOTAL OUT =       11979.2797             TOTAL OUT =         180.2769

            IN - OUT =       7.4433E-09              IN - OUT =      -8.3395E-10

 PERCENT DISCREPANCY =           0.00     PERCENT DISCREPANCY =          -0.00




         TIME SUMMARY AT END OF TIME STEP    1 IN STRESS PERIOD   24
                    SECONDS     MINUTES      HOURS       DAYS        YEARS
                    -----------------------------------------------------------
   TIME STEP LENGTH  86400.      1440.0      24.000      1.0000     2.73785E-03
 STRESS PERIOD TIME  86400.      1440.0      24.000      1.0000     2.73785E-03
         TOTAL TIME 2.07360E+06  34560.      576.00      24.000     6.57084E-02


end timestep


start timestep kper="25" kstp="1" mode="normal"


 OUTPUT CONTROL FOR STRESS PERIOD 25 IS REPEATED USING SETTINGS FROM A PREVIOUS STRESS PERIOD.


 STRESS PERIOD 25 IS TRANSIENT

 UBDSV1 SAVING     FLOW-JA-FACE ON UNIT   1016 AT TIME STEP      1, STRESS PERIOD     25
 UBDSV06 SAVING              RIV IN MODEL GWF_1            PACKAGE GWF_1           CONNECTED TO MODEL GWF_1            PACKAGE RIV-1            ON UNIT   1016 AT TIME STEP      1, STRESS PERIOD     25
 UBDSV06 SAVING              RCH IN MODEL GWF_1            PACKAGE GWF_1           CONNECTED TO MODEL GWF_1            PACKAGE RCH_MSW          ON UNIT   1016 AT TIME STEP      1, STRESS PERIOD     25

 HEAD WILL BE SAVED ON UNIT 1017 AT END OF TIME STEP    1, STRESS PERIOD   25


  VOLUME BUDGET FOR ENTIRE MODEL AT END OF TIME STEP    1, STRESS PERIOD  25
  ---------------------------------------------------------------------------------------------------

     CUMULATIVE VOLUME      L**3       RATES FOR THIS TIME STEP      L**3/T          PACKAGE NAME    
     ------------------                 ------------------------                     ----------------

           IN:                                      IN:
           ---                                      ---
              STO-SS =           0.0000                STO-SS =           0.0000     STORAGE                          
                 RIV =           0.0000                   RIV =           0.0000     RIV-1                            
                 RCH =       12168.8144                   RCH =         189.5346     RCH_MSW                          

            TOTAL IN =       12168.8144              TOTAL IN =         189.5346

          OUT:                                     OUT:
          ----                                     ----
              STO-SS =       12168.8144                STO-SS =         189.5346     STORAGE                          
                 RIV =           0.0000                   RIV =           0.0000     RIV-1                            
                 RCH =           0.0000                   RCH =           0.0000     RCH_MSW                          

           TOTAL OUT =       12168.8144             TOTAL OUT =         189.5346

            IN - OUT =       9.9244E-09              IN - OUT =       2.4820E-09

 PERCENT DISCREPANCY =           0.00     PERCENT DISCREPANCY =           0.00




         TIME SUMMARY AT END OF TIME STEP    1 IN STRESS PERIOD   25
                    SECONDS     MINUTES      HOURS       DAYS        YEARS
                    -----------------------------------------------------------
   TIME STEP LENGTH  86400.      1440.0      24.000      1.0000     2.73785E-03
 STRESS PERIOD TIME  86400.      1440.0      24.000      1.0000     2.73785E-03
         TOTAL TIME 2.16000E+06  36000.      600.00      25.000     6.84463E-02


end timestep


start timestep kper="26" kstp="1" mode="normal"


 OUTPUT CONTROL FOR STRESS PERIOD 26 IS REPEATED USING SETTINGS FROM A PREVIOUS STRESS PERIOD.


 STRESS PERIOD 26 IS TRANSIENT

 UBDSV1 SAVING     FLOW-JA-FACE ON UNIT   1016 AT TIME STEP      1, STRESS PERIOD     26
 UBDSV06 SAVING              RIV IN MODEL GWF_1            PACKAGE GWF_1           CONNECTED TO MODEL GWF_1            PACKAGE RIV-1            ON UNIT   1016 AT TIME STEP      1, STRESS PERIOD     26
[...]
 UBDSV06 SAVING              RIV IN MODEL GWF_1            PACKAGE GWF_1           CONNECTED TO MODEL GWF_1            PACKAGE RIV-1            ON UNIT   1016 AT TIME STEP      1, STRESS PERIOD    206
 UBDSV06 SAVING              RCH IN MODEL GWF_1            PACKAGE GWF_1           CONNECTED TO MODEL GWF_1            PACKAGE RCH_MSW          ON UNIT   1016 AT TIME STEP      1, STRESS PERIOD    206

 HEAD WILL BE SAVED ON UNIT 1017 AT END OF TIME STEP    1, STRESS PERIOD  206


  VOLUME BUDGET FOR ENTIRE MODEL AT END OF TIME STEP    1, STRESS PERIOD 206
  ---------------------------------------------------------------------------------------------------

     CUMULATIVE VOLUME      L**3       RATES FOR THIS TIME STEP      L**3/T          PACKAGE NAME    
     ------------------                 ------------------------                     ----------------

           IN:                                      IN:
           ---                                      ---
              STO-SS =       10388.3343                STO-SS =         113.8255     STORAGE                          
                 RIV =           0.0000                   RIV =           0.0000     RIV-1                            
                 RCH =       28374.4911                   RCH =           0.0000     RCH_MSW                          

            TOTAL IN =       38762.8254              TOTAL IN =         113.8255

          OUT:                                     OUT:
          ----                                     ----
              STO-SS =       29810.6484                STO-SS =          13.5750     STORAGE                          
                 RIV =           0.0000                   RIV =           0.0000     RIV-1                            
                 RCH =        8952.1770                   RCH =         100.2505     RCH_MSW                          

           TOTAL OUT =       38762.8254             TOTAL OUT =         113.8255

            IN - OUT =       2.6524E-07              IN - OUT =       4.1589E-10

 PERCENT DISCREPANCY =           0.00     PERCENT DISCREPANCY =           0.00




         TIME SUMMARY AT END OF TIME STEP    1 IN STRESS PERIOD  206
                    SECONDS     MINUTES      HOURS       DAYS        YEARS
                    -----------------------------------------------------------
   TIME STEP LENGTH  86400.      1440.0      24.000      1.0000     2.73785E-03
 STRESS PERIOD TIME  86400.      1440.0      24.000      1.0000     2.73785E-03
         TOTAL TIME 1.77984E+07 2.96640E+05  4944.0      206.00     0.56400    


end timestep


start timestep kper="207" kstp="1" mode="normal"


 OUTPUT CONTROL FOR STRESS PERIOD 207 IS REPEATED USING SETTINGS FROM A PREVIOUS STRESS PERIOD.


 STRESS PERIOD 207 IS TRANSIENT

 UBDSV1 SAVING     FLOW-JA-FACE ON UNIT   1016 AT TIME STEP      1, STRESS PERIOD    207
 UBDSV06 SAVING              RIV IN MODEL GWF_1            PACKAGE GWF_1           CONNECTED TO MODEL GWF_1            PACKAGE RIV-1            ON UNIT   1016 AT TIME STEP      1, STRESS PERIOD    207
 UBDSV06 SAVING              RCH IN MODEL GWF_1            PACKAGE GWF_1           CONNECTED TO MODEL GWF_1            PACKAGE RCH_MSW          ON UNIT   1016 AT TIME STEP      1, STRESS PERIOD    207

 HEAD WILL BE SAVED ON UNIT 1017 AT END OF TIME STEP    1, STRESS PERIOD  207


  VOLUME BUDGET FOR ENTIRE MODEL AT END OF TIME STEP    1, STRESS PERIOD 207
  ---------------------------------------------------------------------------------------------------

     CUMULATIVE VOLUME      L**3       RATES FOR THIS TIME STEP      L**3/T          PACKAGE NAME    
     ------------------                 ------------------------                     ----------------

           IN:                                      IN:
           ---                                      ---
              STO-SS =       10504.3348                STO-SS =         116.0005     STORAGE                          
                 RIV =           0.0000                   RIV =           0.0000     RIV-1                            
                 RCH =       28374.4911                   RCH =           0.0000     RCH_MSW                          

            TOTAL IN =       38878.8259              TOTAL IN =         116.0005

          OUT:                                     OUT:
          ----                                     ----
              STO-SS =       29824.1771                STO-SS =          13.5287     STORAGE                          
                 RIV =           0.0000                   RIV =           0.0000     RIV-1                            
                 RCH =        9054.6488                   RCH =         102.4718     RCH_MSW                          

           TOTAL OUT =       38878.8259             TOTAL OUT =         116.0005

            IN - OUT =       2.6503E-07              IN - OUT =      -1.9739E-10

 PERCENT DISCREPANCY =           0.00     PERCENT DISCREPANCY =          -0.00




         TIME SUMMARY AT END OF TIME STEP    1 IN STRESS PERIOD  207
                    SECONDS     MINUTES      HOURS       DAYS        YEARS
                    -----------------------------------------------------------
   TIME STEP LENGTH  86400.      1440.0      24.000      1.0000     2.73785E-03
 STRESS PERIOD TIME  86400.      1440.0      24.000      1.0000     2.73785E-03
         TOTAL TIME 1.78848E+07 2.98080E+05  4968.0      207.00     0.56674    


end timestep


start timestep kper="208" kstp="1" mode="normal"


 OUTPUT CONTROL FOR STRESS PERIOD 208 IS REPEATED USING SETTINGS FROM A PREVIOUS STRESS PERIOD.


 STRESS PERIOD 208 IS TRANSIENT

 UBDSV1 SAVING     FLOW-JA-FACE ON UNIT   1016 AT TIME STEP      1, STRESS PERIOD    208
 UBDSV06 SAVING              RIV IN MODEL GWF_1            PACKAGE GWF_1           CONNECTED TO MODEL GWF_1            PACKAGE RIV-1            ON UNIT   1016 AT TIME STEP      1, STRESS PERIOD    208
 UBDSV06 SAVING              RCH IN MODEL GWF_1            PACKAGE GWF_1           CONNECTED TO MODEL GWF_1            PACKAGE RCH_MSW          ON UNIT   1016 AT TIME STEP      1, STRESS PERIOD    208

 HEAD WILL BE SAVED ON UNIT 1017 AT END OF TIME STEP    1, STRESS PERIOD  208


  VOLUME BUDGET FOR ENTIRE MODEL AT END OF TIME STEP    1, STRESS PERIOD 208
  ---------------------------------------------------------------------------------------------------

     CUMULATIVE VOLUME      L**3       RATES FOR THIS TIME STEP      L**3/T          PACKAGE NAME    
     ------------------                 ------------------------                     ----------------

           IN:                                      IN:
           ---                                      ---
              STO-SS =       10618.8317                STO-SS =         114.4969     STORAGE                          
                 RIV =           0.0000                   RIV =           0.0000     RIV-1                            
                 RCH =       28374.4911                   RCH =           0.0000     RCH_MSW                          

            TOTAL IN =       38993.3228              TOTAL IN =         114.4969

          OUT:                                     OUT:
          ----                                     ----
              STO-SS =       29837.6590                STO-SS =          13.4819     STORAGE                          
                 RIV =           0.0000                   RIV =           0.0000     RIV-1                            
                 RCH =        9155.6637                   RCH =         101.0150     RCH_MSW                          

           TOTAL OUT =       38993.3228             TOTAL OUT =         114.4969

            IN - OUT =       2.6965E-07              IN - OUT =       4.6102E-09

 PERCENT DISCREPANCY =           0.00     PERCENT DISCREPANCY =           0.00




         TIME SUMMARY AT END OF TIME STEP    1 IN STRESS PERIOD  208
                    SECONDS     MINUTES      HOURS       DAYS        YEARS
                    -----------------------------------------------------------
   TIME STEP LENGTH  86400.      1440.0      24.000      1.0000     2.73785E-03
 STRESS PERIOD TIME  86400.      1440.0      24.000      1.0000     2.73785E-03
         TOTAL TIME 1.79712E+07 2.99520E+05  4992.0      208.00     0.56947    


end timestep


start timestep kper="209" kstp="1" mode="normal"


 OUTPUT CONTROL FOR STRESS PERIOD 209 IS REPEATED USING SETTINGS FROM A PREVIOUS STRESS PERIOD.


 STRESS PERIOD 209 IS TRANSIENT

 UBDSV1 SAVING     FLOW-JA-FACE ON UNIT   1016 AT TIME STEP      1, STRESS PERIOD    209
 UBDSV06 SAVING              RIV IN MODEL GWF_1            PACKAGE GWF_1           CONNECTED TO MODEL GWF_1            PACKAGE RIV-1            ON UNIT   1016 AT TIME STEP      1, STRESS PERIOD    209
 UBDSV06 SAVING              RCH IN MODEL GWF_1            PACKAGE GWF_1           CONNECTED TO MODEL GWF_1            PACKAGE RCH_MSW          ON UNIT   1016 AT TIME STEP      1, STRESS PERIOD    209

 HEAD WILL BE SAVED ON UNIT 1017 AT END OF TIME STEP    1, STRESS PERIOD  209


  VOLUME BUDGET FOR ENTIRE MODEL AT END OF TIME STEP    1, STRESS PERIOD 209
  ---------------------------------------------------------------------------------------------------

     CUMULATIVE VOLUME      L**3       RATES FOR THIS TIME STEP      L**3/T          PACKAGE NAME    
     ------------------                 ------------------------                     ----------------

           IN:                                      IN:
           ---                                      ---
              STO-SS =       10730.3388                STO-SS =         111.5071     STORAGE                          
                 RIV =           0.0000                   RIV =           0.0000     RIV-1                            
                 RCH =       28374.4911                   RCH =           0.0000     RCH_MSW                          

            TOTAL IN =       39104.8299              TOTAL IN =         111.5071

          OUT:                                     OUT:
          ----                                     ----
              STO-SS =       29851.0935                STO-SS =          13.4345     STORAGE                          
                 RIV =           0.0000                   RIV =           0.0000     RIV-1                            
                 RCH =        9253.7364                   RCH =          98.0726     RCH_MSW                          

           TOTAL OUT =       39104.8299             TOTAL OUT =         111.5071

            IN - OUT =       2.7128E-07              IN - OUT =       1.6231E-09

 PERCENT DISCREPANCY =           0.00     PERCENT DISCREPANCY =           0.00




         TIME SUMMARY AT END OF TIME STEP    1 IN STRESS PERIOD  209
                    SECONDS     MINUTES      HOURS       DAYS        YEARS
                    -----------------------------------------------------------
   TIME STEP LENGTH  86400.      1440.0      24.000      1.0000     2.73785E-03
 STRESS PERIOD TIME  86400.      1440.0      24.000      1.0000     2.73785E-03
         TOTAL TIME 1.80576E+07 3.00960E+05  5016.0      209.00     0.57221    


end timestep


start timestep kper="210" kstp="1" mode="normal"


 OUTPUT CONTROL FOR STRESS PERIOD 210 IS REPEATED USING SETTINGS FROM A PREVIOUS STRESS PERIOD.


 STRESS PERIOD 210 IS TRANSIENT

 UBDSV1 SAVING     FLOW-JA-FACE ON UNIT   1016 AT TIME STEP      1, STRESS PERIOD    210
 UBDSV06 SAVING              RIV IN MODEL GWF_1            PACKAGE GWF_1           CONNECTED TO MODEL GWF_1            PACKAGE RIV-1            ON UNIT   1016 AT TIME STEP      1, STRESS PERIOD    210
 UBDSV06 SAVING              RCH IN MODEL GWF_1            PACKAGE GWF_1           CONNECTED TO MODEL GWF_1            PACKAGE RCH_MSW          ON UNIT   1016 AT TIME STEP      1, STRESS PERIOD    210

 HEAD WILL BE SAVED ON UNIT 1017 AT END OF TIME STEP    1, STRESS PERIOD  210


  VOLUME BUDGET FOR ENTIRE MODEL AT END OF TIME STEP    1, STRESS PERIOD 210
  ---------------------------------------------------------------------------------------------------

     CUMULATIVE VOLUME      L**3       RATES FOR THIS TIME STEP      L**3/T          PACKAGE NAME    
     ------------------                 ------------------------                     ----------------

           IN:                                      IN:
           ---                                      ---
              STO-SS =       10826.5402                STO-SS =          96.2014     STORAGE                          
                 RIV =           0.0000                   RIV =           0.0000     RIV-1                            
                 RCH =       28374.4911                   RCH =           0.0000     RCH_MSW                          

            TOTAL IN =       39201.0313              TOTAL IN =          96.2014

          OUT:                                     OUT:
          ----                                     ----
              STO-SS =       29864.4803                STO-SS =          13.3868     STORAGE                          
                 RIV =           0.0000                   RIV =           0.0000     RIV-1                            
                 RCH =        9336.5510                   RCH =          82.8146     RCH_MSW                          

           TOTAL OUT =       39201.0313             TOTAL OUT =          96.2014

            IN - OUT =       2.6681E-07              IN - OUT =      -4.4660E-09

 PERCENT DISCREPANCY =           0.00     PERCENT DISCREPANCY =          -0.00




         TIME SUMMARY AT END OF TIME STEP    1 IN STRESS PERIOD  210
                    SECONDS     MINUTES      HOURS       DAYS        YEARS
                    -----------------------------------------------------------
   TIME STEP LENGTH  86400.      1440.0      24.000      1.0000     2.73785E-03
 STRESS PERIOD TIME  86400.      1440.0      24.000      1.0000     2.73785E-03
         TOTAL TIME 1.81440E+07 3.02400E+05  5040.0      210.00     0.57495    


end timestep


start timestep kper="211" kstp="1" mode="normal"


 OUTPUT CONTROL FOR STRESS PERIOD 211 IS REPEATED USING SETTINGS FROM A PREVIOUS STRESS PERIOD.


 STRESS PERIOD 211 IS TRANSIENT

 UBDSV1 SAVING     FLOW-JA-FACE ON UNIT   1016 AT TIME STEP      1, STRESS PERIOD    211
 UBDSV06 SAVING              RIV IN MODEL GWF_1            PACKAGE GWF_1           CONNECTED TO MODEL GWF_1            PACKAGE RIV-1            ON UNIT   1016 AT TIME STEP      1, STRESS PERIOD    211
 UBDSV06 SAVING              RCH IN MODEL GWF_1            PACKAGE GWF_1           CONNECTED TO MODEL GWF_1            PACKAGE RCH_MSW          ON UNIT   1016 AT TIME STEP      1, STRESS PERIOD    211

 HEAD WILL BE SAVED ON UNIT 1017 AT END OF TIME STEP    1, STRESS PERIOD  211


  VOLUME BUDGET FOR ENTIRE MODEL AT END OF TIME STEP    1, STRESS PERIOD 211
  ---------------------------------------------------------------------------------------------------

     CUMULATIVE VOLUME      L**3       RATES FOR THIS TIME STEP      L**3/T          PACKAGE NAME    
     ------------------                 ------------------------                     ----------------

           IN:                                      IN:
           ---                                      ---
              STO-SS =       10929.8993                STO-SS =         103.3591     STORAGE                          
                 RIV =           0.0000                   RIV =           0.0000     RIV-1                            
                 RCH =       28374.4911                   RCH =           0.0000     RCH_MSW                          

            TOTAL IN =       39304.3904              TOTAL IN =         103.3591

          OUT:                                     OUT:
          ----                                     ----
              STO-SS =       29877.8191                STO-SS =          13.3387     STORAGE                          
                 RIV =           0.0000                   RIV =           0.0000     RIV-1                            
                 RCH =        9426.5713                   RCH =          90.0203     RCH_MSW                          

           TOTAL OUT =       39304.3904             TOTAL OUT =         103.3591

            IN - OUT =       2.6702E-07              IN - OUT =       2.1333E-10

 PERCENT DISCREPANCY =           0.00     PERCENT DISCREPANCY =           0.00




         TIME SUMMARY AT END OF TIME STEP    1 IN STRESS PERIOD  211
                    SECONDS     MINUTES      HOURS       DAYS        YEARS
                    -----------------------------------------------------------
   TIME STEP LENGTH  86400.      1440.0      24.000      1.0000     2.73785E-03
 STRESS PERIOD TIME  86400.      1440.0      24.000      1.0000     2.73785E-03
         TOTAL TIME 1.82304E+07 3.03840E+05  5064.0      211.00     0.57769    


end timestep


start timestep kper="212" kstp="1" mode="normal"


 OUTPUT CONTROL FOR STRESS PERIOD 212 IS REPEATED USING SETTINGS FROM A PREVIOUS STRESS PERIOD.


 STRESS PERIOD 212 IS TRANSIENT

 UBDSV1 SAVING     FLOW-JA-FACE ON UNIT   1016 AT TIME STEP      1, STRESS PERIOD    212
 UBDSV06 SAVING              RIV IN MODEL GWF_1            PACKAGE GWF_1           CONNECTED TO MODEL GWF_1            PACKAGE RIV-1            ON UNIT   1016 AT TIME STEP      1, STRESS PERIOD    212
 UBDSV06 SAVING              RCH IN MODEL GWF_1            PACKAGE GWF_1           CONNECTED TO MODEL GWF_1            PACKAGE RCH_MSW          ON UNIT   1016 AT TIME STEP      1, STRESS PERIOD    212

 HEAD WILL BE SAVED ON UNIT 1017 AT END OF TIME STEP    1, STRESS PERIOD  212


  VOLUME BUDGET FOR ENTIRE MODEL AT END OF TIME STEP    1, STRESS PERIOD 212
  ---------------------------------------------------------------------------------------------------

     CUMULATIVE VOLUME      L**3       RATES FOR THIS TIME STEP      L**3/T          PACKAGE NAME    
     ------------------                 ------------------------                     ----------------

           IN:                                      IN:
           ---                                      ---
              STO-SS =       11042.1717                STO-SS =         112.2725     STORAGE                          
                 RIV =           0.0000                   RIV =           0.0000     RIV-1                            
                 RCH =       28374.4911                   RCH =           0.0000     RCH_MSW                          

            TOTAL IN =       39416.6628              TOTAL IN =         112.2725

          OUT:                                     OUT:
          ----                                     ----
              STO-SS =       29891.1093                STO-SS =          13.2903     STORAGE                          
                 RIV =           0.0000                   RIV =           0.0000     RIV-1                            
                 RCH =        9525.5535                   RCH =          98.9822     RCH_MSW                          

           TOTAL OUT =       39416.6628             TOTAL OUT =         112.2725

            IN - OUT =       2.9772E-07              IN - OUT =       3.0700E-08

 PERCENT DISCREPANCY =           0.00     PERCENT DISCREPANCY =           0.00




         TIME SUMMARY AT END OF TIME STEP    1 IN STRESS PERIOD  212
                    SECONDS     MINUTES      HOURS       DAYS        YEARS
                    -----------------------------------------------------------
   TIME STEP LENGTH  86400.      1440.0      24.000      1.0000     2.73785E-03
 STRESS PERIOD TIME  86400.      1440.0      24.000      1.0000     2.73785E-03
         TOTAL TIME 1.83168E+07 3.05280E+05  5088.0      212.00     0.58042    


end timestep

